nohup: ignoring input
/*---------------------------------------------------------------------------*\
  =========                 |
  \\      /  F ield         | OpenFOAM: The Open Source CFD Toolbox
   \\    /   O peration     | Website:  https://openfoam.org
    \\  /    A nd           | Version:  11
     \\/     M anipulation  |
\*---------------------------------------------------------------------------*/
Build  : 11-c219200fdb8b
Exec   : foamRun
Date   : May 09 2024
Time   : 15:30:54
Host   : "cda-server-4"
PID    : 4036416
I/O    : uncollated
Case   : /home/takken/mmft-CFD-cases/DiffusiveMixing/grid-mixer/concentrationField
nProcs : 1
sigFpe : Enabling floating point exception trapping (FOAM_SIGFPE).
fileModificationChecking : Monitoring run-time modified files using timeStampMaster (fileModificationSkew 10)
allowSystemOperations : Allowing user-supplied system call operations

// * * * * * * * * * * * * * * * * * * * * * * * * * * * * * * * * * * * * * //
Create time

Create mesh for time = 0

Selecting solver functions
Selecting solver incompressibleFluid
Selecting viscosity model constant
Selecting turbulence model type laminar
Selecting laminar stress model Stokes
No MRF models present

Courant Number mean: 24.8201 max: 133.845

PIMPLE: No convergence criteria found


PIMPLE: Operating solver in transient mode with 1 outer corrector
PIMPLE: Operating solver in PISO mode



Starting time loop

Using dynamicCode for coded mixingQualityCheck at line 59 in "/home/takken/mmft-CFD-cases/DiffusiveMixing/grid-mixer/concentrationField/system/controlDict/functions/mixingQualityCheck"
Creating new library in "dynamicCode/mixingQualityCheck/platforms/linux64GccDPInt32Opt/lib/libmixingQualityCheck_c02623056b6dcd01f746e751a7731192a5e7c92a.so"
"/opt/openfoam11/etc/codeTemplates/dynamicCode/codedFunctionObjectTemplate.C" "/home/takken/mmft-CFD-cases/DiffusiveMixing/grid-mixer/concentrationField/dynamicCode/mixingQualityCheck/codedFunctionObjectTemplate.C"
"/opt/openfoam11/etc/codeTemplates/dynamicCode/codedFunctionObjectTemplate.H" "/home/takken/mmft-CFD-cases/DiffusiveMixing/grid-mixer/concentrationField/dynamicCode/mixingQualityCheck/codedFunctionObjectTemplate.H"
Invoking "wmake -s libso /home/takken/mmft-CFD-cases/DiffusiveMixing/grid-mixer/concentrationField/dynamicCode/mixingQualityCheck"
wmake libso /home/takken/mmft-CFD-cases/DiffusiveMixing/grid-mixer/concentrationField/dynamicCode/mixingQualityCheck
    ln: ./lnInclude
    wmkdep: codedFunctionObjectTemplate.C
    Ctoo: codedFunctionObjectTemplate.C
    ld: /home/takken/mmft-CFD-cases/DiffusiveMixing/grid-mixer/concentrationField/dynamicCode/mixingQualityCheck/../platforms/linux64GccDPInt32Opt/lib/libmixingQualityCheck_c02623056b6dcd01f746e751a7731192a5e7c92a.so
scalarTransport write:
DILUPBiCGStab:  Solving for C, Initial residual = 1, Final residual = 9.05279e-07, No Iterations 92

mixingQuality = 0.00234323
Time = 0.01s

ExecutionTime = 3.97976 s  ClockTime = 6 s

scalarTransport write:
DILUPBiCGStab:  Solving for C, Initial residual = 0.2636, Final residual = 4.37459e-07, No Iterations 98

mixingQuality = 0.00567243
Time = 0.02s

ExecutionTime = 5.58798 s  ClockTime = 8 s

scalarTransport write:
DILUPBiCGStab:  Solving for C, Initial residual = 0.115334, Final residual = 4.27347e-07, No Iterations 100

mixingQuality = 0.00918941
Time = 0.03s

ExecutionTime = 7.19547 s  ClockTime = 9 s

scalarTransport write:
DILUPBiCGStab:  Solving for C, Initial residual = 0.0744037, Final residual = 7.3138e-07, No Iterations 100

mixingQuality = 0.0126491
Time = 0.04s

ExecutionTime = 8.79908 s  ClockTime = 11 s

scalarTransport write:
DILUPBiCGStab:  Solving for C, Initial residual = 0.0541202, Final residual = 9.32204e-07, No Iterations 93

mixingQuality = 0.0159981
Time = 0.05s

ExecutionTime = 10.2927 s  ClockTime = 13 s

scalarTransport write:
DILUPBiCGStab:  Solving for C, Initial residual = 0.0435811, Final residual = 9.61503e-07, No Iterations 74

mixingQuality = 0.0193018
Time = 0.06s

ExecutionTime = 11.4906 s  ClockTime = 14 s

scalarTransport write:
DILUPBiCGStab:  Solving for C, Initial residual = 0.0366903, Final residual = 8.98942e-07, No Iterations 58

mixingQuality = 0.0225921
Time = 0.07s

ExecutionTime = 12.4385 s  ClockTime = 15 s

scalarTransport write:
DILUPBiCGStab:  Solving for C, Initial residual = 0.0318311, Final residual = 9.47283e-07, No Iterations 50

mixingQuality = 0.0258829
Time = 0.08s

ExecutionTime = 13.2728 s  ClockTime = 16 s

scalarTransport write:
DILUPBiCGStab:  Solving for C, Initial residual = 0.0281964, Final residual = 8.86754e-07, No Iterations 49

mixingQuality = 0.0291733
Time = 0.09s

ExecutionTime = 14.088 s  ClockTime = 16 s

scalarTransport write:
DILUPBiCGStab:  Solving for C, Initial residual = 0.0253804, Final residual = 3.14284e-07, No Iterations 52

mixingQuality = 0.0324623
Time = 0.1s

ExecutionTime = 14.9444 s  ClockTime = 17 s

scalarTransport write:
DILUPBiCGStab:  Solving for C, Initial residual = 0.0231446, Final residual = 8.07159e-07, No Iterations 45

mixingQuality = 0.0357506
Time = 0.11s

ExecutionTime = 15.6902 s  ClockTime = 18 s

scalarTransport write:
DILUPBiCGStab:  Solving for C, Initial residual = 0.0213336, Final residual = 9.13427e-07, No Iterations 40

mixingQuality = 0.0390388
Time = 0.12s

ExecutionTime = 16.3644 s  ClockTime = 19 s

scalarTransport write:
DILUPBiCGStab:  Solving for C, Initial residual = 0.0198416, Final residual = 9.47865e-07, No Iterations 40

mixingQuality = 0.0423269
Time = 0.13s

ExecutionTime = 17.0393 s  ClockTime = 19 s

scalarTransport write:
DILUPBiCGStab:  Solving for C, Initial residual = 0.018594, Final residual = 9.14793e-07, No Iterations 39

mixingQuality = 0.045615
Time = 0.14s

ExecutionTime = 17.691 s  ClockTime = 20 s

scalarTransport write:
DILUPBiCGStab:  Solving for C, Initial residual = 0.0175365, Final residual = 7.69947e-07, No Iterations 39

mixingQuality = 0.0489031
Time = 0.15s

ExecutionTime = 18.3492 s  ClockTime = 21 s

scalarTransport write:
DILUPBiCGStab:  Solving for C, Initial residual = 0.0166289, Final residual = 9.02144e-07, No Iterations 40

mixingQuality = 0.0521912
Time = 0.16s

ExecutionTime = 19.0304 s  ClockTime = 21 s

scalarTransport write:
DILUPBiCGStab:  Solving for C, Initial residual = 0.0158412, Final residual = 9.17337e-07, No Iterations 37

mixingQuality = 0.0554793
Time = 0.17s

ExecutionTime = 19.6642 s  ClockTime = 22 s

scalarTransport write:
DILUPBiCGStab:  Solving for C, Initial residual = 0.0151501, Final residual = 9.11291e-07, No Iterations 38

mixingQuality = 0.0587674
Time = 0.18s

ExecutionTime = 20.3087 s  ClockTime = 23 s

scalarTransport write:
DILUPBiCGStab:  Solving for C, Initial residual = 0.014538, Final residual = 7.13458e-07, No Iterations 36

mixingQuality = 0.0620554
Time = 0.19s

ExecutionTime = 20.9198 s  ClockTime = 23 s

scalarTransport write:
DILUPBiCGStab:  Solving for C, Initial residual = 0.0139908, Final residual = 9.7565e-07, No Iterations 31

mixingQuality = 0.0653435
Time = 0.2s

ExecutionTime = 21.4602 s  ClockTime = 24 s

scalarTransport write:
DILUPBiCGStab:  Solving for C, Initial residual = 0.0134979, Final residual = 9.59348e-07, No Iterations 31

mixingQuality = 0.0686316
Time = 0.21s

ExecutionTime = 22.0119 s  ClockTime = 24 s

scalarTransport write:
DILUPBiCGStab:  Solving for C, Initial residual = 0.0130516, Final residual = 9.00493e-07, No Iterations 34

mixingQuality = 0.0719196
Time = 0.22s

ExecutionTime = 22.5947 s  ClockTime = 25 s

scalarTransport write:
DILUPBiCGStab:  Solving for C, Initial residual = 0.0126455, Final residual = 9.18301e-07, No Iterations 33

mixingQuality = 0.0752077
Time = 0.23s

ExecutionTime = 23.1617 s  ClockTime = 25 s

scalarTransport write:
DILUPBiCGStab:  Solving for C, Initial residual = 0.012274, Final residual = 6.84535e-07, No Iterations 34

mixingQuality = 0.0784958
Time = 0.24s

ExecutionTime = 23.7391 s  ClockTime = 26 s

scalarTransport write:
DILUPBiCGStab:  Solving for C, Initial residual = 0.0119325, Final residual = 8.83603e-07, No Iterations 30

mixingQuality = 0.0817839
Time = 0.25s

ExecutionTime = 24.26 s  ClockTime = 27 s

scalarTransport write:
DILUPBiCGStab:  Solving for C, Initial residual = 0.0116177, Final residual = 9.69489e-07, No Iterations 29

mixingQuality = 0.085072
Time = 0.26s

ExecutionTime = 24.7604 s  ClockTime = 27 s

scalarTransport write:
DILUPBiCGStab:  Solving for C, Initial residual = 0.0113266, Final residual = 9.56044e-07, No Iterations 33

mixingQuality = 0.0883601
Time = 0.27s

ExecutionTime = 25.3299 s  ClockTime = 28 s

scalarTransport write:
DILUPBiCGStab:  Solving for C, Initial residual = 0.0110567, Final residual = 8.5573e-07, No Iterations 29

mixingQuality = 0.0916481
Time = 0.28s

ExecutionTime = 25.8355 s  ClockTime = 28 s

scalarTransport write:
DILUPBiCGStab:  Solving for C, Initial residual = 0.0108057, Final residual = 9.96913e-07, No Iterations 28

mixingQuality = 0.0949362
Time = 0.29s

ExecutionTime = 26.3256 s  ClockTime = 29 s

scalarTransport write:
DILUPBiCGStab:  Solving for C, Initial residual = 0.0105715, Final residual = 9.90169e-07, No Iterations 27

mixingQuality = 0.0982242
Time = 0.3s

ExecutionTime = 26.8001 s  ClockTime = 29 s

scalarTransport write:
DILUPBiCGStab:  Solving for C, Initial residual = 0.0103519, Final residual = 9.11317e-07, No Iterations 29

mixingQuality = 0.101512
Time = 0.31s

ExecutionTime = 27.3134 s  ClockTime = 30 s

scalarTransport write:
DILUPBiCGStab:  Solving for C, Initial residual = 0.0101449, Final residual = 8.86236e-07, No Iterations 26

mixingQuality = 0.1048
Time = 0.32s

ExecutionTime = 27.7717 s  ClockTime = 30 s

scalarTransport write:
DILUPBiCGStab:  Solving for C, Initial residual = 0.00994871, Final residual = 8.79512e-07, No Iterations 26

mixingQuality = 0.108088
Time = 0.33s

ExecutionTime = 28.2259 s  ClockTime = 30 s

scalarTransport write:
DILUPBiCGStab:  Solving for C, Initial residual = 0.00976207, Final residual = 9.2465e-07, No Iterations 27

mixingQuality = 0.111376
Time = 0.34s

ExecutionTime = 28.6966 s  ClockTime = 31 s

scalarTransport write:
DILUPBiCGStab:  Solving for C, Initial residual = 0.0095844, Final residual = 9.1378e-07, No Iterations 26

mixingQuality = 0.114664
Time = 0.35s

ExecutionTime = 29.1524 s  ClockTime = 31 s

scalarTransport write:
DILUPBiCGStab:  Solving for C, Initial residual = 0.00941508, Final residual = 9.0257e-07, No Iterations 26

mixingQuality = 0.117952
Time = 0.36s

ExecutionTime = 29.6102 s  ClockTime = 32 s

scalarTransport write:
DILUPBiCGStab:  Solving for C, Initial residual = 0.0092536, Final residual = 6.03163e-07, No Iterations 28

mixingQuality = 0.12124
Time = 0.37s

ExecutionTime = 30.0906 s  ClockTime = 32 s

scalarTransport write:
DILUPBiCGStab:  Solving for C, Initial residual = 0.00909959, Final residual = 9.98885e-07, No Iterations 27

mixingQuality = 0.124529
Time = 0.38s

ExecutionTime = 30.555 s  ClockTime = 33 s

scalarTransport write:
DILUPBiCGStab:  Solving for C, Initial residual = 0.00895272, Final residual = 9.82999e-07, No Iterations 26

mixingQuality = 0.127817
Time = 0.39s

ExecutionTime = 31.0028 s  ClockTime = 33 s

scalarTransport write:
DILUPBiCGStab:  Solving for C, Initial residual = 0.00881262, Final residual = 6.33346e-07, No Iterations 28

mixingQuality = 0.131105
Time = 0.4s

ExecutionTime = 31.484 s  ClockTime = 34 s

scalarTransport write:
DILUPBiCGStab:  Solving for C, Initial residual = 0.00867888, Final residual = 9.00853e-07, No Iterations 26

mixingQuality = 0.134393
Time = 0.41s

ExecutionTime = 31.9329 s  ClockTime = 34 s

scalarTransport write:
DILUPBiCGStab:  Solving for C, Initial residual = 0.00855119, Final residual = 9.92505e-07, No Iterations 26

mixingQuality = 0.137681
Time = 0.42s

ExecutionTime = 32.3902 s  ClockTime = 35 s

scalarTransport write:
DILUPBiCGStab:  Solving for C, Initial residual = 0.00842937, Final residual = 8.47277e-07, No Iterations 26

mixingQuality = 0.140969
Time = 0.43s

ExecutionTime = 32.8393 s  ClockTime = 35 s

scalarTransport write:
DILUPBiCGStab:  Solving for C, Initial residual = 0.00831345, Final residual = 8.59476e-07, No Iterations 26

mixingQuality = 0.144257
Time = 0.44s

ExecutionTime = 33.2955 s  ClockTime = 36 s

scalarTransport write:
DILUPBiCGStab:  Solving for C, Initial residual = 0.00820343, Final residual = 9.99905e-07, No Iterations 26

mixingQuality = 0.147545
Time = 0.45s

ExecutionTime = 33.746 s  ClockTime = 36 s

scalarTransport write:
DILUPBiCGStab:  Solving for C, Initial residual = 0.0080992, Final residual = 9.3699e-07, No Iterations 25

mixingQuality = 0.150833
Time = 0.46s

ExecutionTime = 34.1875 s  ClockTime = 36 s

scalarTransport write:
DILUPBiCGStab:  Solving for C, Initial residual = 0.00800054, Final residual = 9.82755e-07, No Iterations 28

mixingQuality = 0.154121
Time = 0.47s

ExecutionTime = 34.6665 s  ClockTime = 37 s

scalarTransport write:
DILUPBiCGStab:  Solving for C, Initial residual = 0.00790715, Final residual = 8.53715e-07, No Iterations 28

mixingQuality = 0.157409
Time = 0.48s

ExecutionTime = 35.1459 s  ClockTime = 37 s

scalarTransport write:
DILUPBiCGStab:  Solving for C, Initial residual = 0.00781855, Final residual = 9.11403e-07, No Iterations 32

mixingQuality = 0.160697
Time = 0.49s

ExecutionTime = 35.6878 s  ClockTime = 38 s

scalarTransport write:
DILUPBiCGStab:  Solving for C, Initial residual = 0.00773446, Final residual = 8.39238e-07, No Iterations 30

mixingQuality = 0.163985
Time = 0.5s

ExecutionTime = 36.2062 s  ClockTime = 38 s

scalarTransport write:
DILUPBiCGStab:  Solving for C, Initial residual = 0.00765474, Final residual = 9.2617e-07, No Iterations 26

mixingQuality = 0.167273
Time = 0.51s

ExecutionTime = 36.6637 s  ClockTime = 39 s

scalarTransport write:
DILUPBiCGStab:  Solving for C, Initial residual = 0.00757926, Final residual = 8.91104e-07, No Iterations 26

mixingQuality = 0.170561
Time = 0.52s

ExecutionTime = 37.1206 s  ClockTime = 39 s

scalarTransport write:
DILUPBiCGStab:  Solving for C, Initial residual = 0.0075077, Final residual = 9.1938e-07, No Iterations 30

mixingQuality = 0.173849
Time = 0.53s

ExecutionTime = 37.6317 s  ClockTime = 40 s

scalarTransport write:
DILUPBiCGStab:  Solving for C, Initial residual = 0.00743984, Final residual = 9.58557e-07, No Iterations 26

mixingQuality = 0.177137
Time = 0.54s

ExecutionTime = 38.0821 s  ClockTime = 40 s

scalarTransport write:
DILUPBiCGStab:  Solving for C, Initial residual = 0.00737542, Final residual = 9.84697e-07, No Iterations 26

mixingQuality = 0.180425
Time = 0.55s

ExecutionTime = 38.5306 s  ClockTime = 41 s

scalarTransport write:
DILUPBiCGStab:  Solving for C, Initial residual = 0.00731426, Final residual = 5.24401e-07, No Iterations 31

mixingQuality = 0.183713
Time = 0.56s

ExecutionTime = 39.0605 s  ClockTime = 41 s

scalarTransport write:
DILUPBiCGStab:  Solving for C, Initial residual = 0.00725618, Final residual = 8.84924e-07, No Iterations 33

mixingQuality = 0.187001
Time = 0.57s

ExecutionTime = 39.6203 s  ClockTime = 42 s

scalarTransport write:
DILUPBiCGStab:  Solving for C, Initial residual = 0.007201, Final residual = 9.17846e-07, No Iterations 29

mixingQuality = 0.190289
Time = 0.58s

ExecutionTime = 40.1238 s  ClockTime = 42 s

scalarTransport write:
DILUPBiCGStab:  Solving for C, Initial residual = 0.00714865, Final residual = 9.08286e-07, No Iterations 29

mixingQuality = 0.193577
Time = 0.59s

ExecutionTime = 40.6198 s  ClockTime = 43 s

scalarTransport write:
DILUPBiCGStab:  Solving for C, Initial residual = 0.00709908, Final residual = 9.70419e-07, No Iterations 26

mixingQuality = 0.196865
Time = 0.6s

ExecutionTime = 41.07 s  ClockTime = 43 s

scalarTransport write:
DILUPBiCGStab:  Solving for C, Initial residual = 0.00705222, Final residual = 5.72626e-07, No Iterations 28

mixingQuality = 0.200153
Time = 0.61s

ExecutionTime = 41.5504 s  ClockTime = 44 s

scalarTransport write:
DILUPBiCGStab:  Solving for C, Initial residual = 0.0070079, Final residual = 9.3056e-07, No Iterations 27

mixingQuality = 0.203441
Time = 0.62s

ExecutionTime = 42.0254 s  ClockTime = 44 s

scalarTransport write:
DILUPBiCGStab:  Solving for C, Initial residual = 0.00696602, Final residual = 9.78454e-07, No Iterations 26

mixingQuality = 0.206729
Time = 0.63s

ExecutionTime = 42.4819 s  ClockTime = 45 s

scalarTransport write:
DILUPBiCGStab:  Solving for C, Initial residual = 0.00692645, Final residual = 8.47873e-07, No Iterations 27

mixingQuality = 0.210017
Time = 0.64s

ExecutionTime = 42.9555 s  ClockTime = 45 s

scalarTransport write:
DILUPBiCGStab:  Solving for C, Initial residual = 0.00688909, Final residual = 7.3065e-07, No Iterations 31

mixingQuality = 0.213305
Time = 0.65s

ExecutionTime = 43.4836 s  ClockTime = 46 s

scalarTransport write:
DILUPBiCGStab:  Solving for C, Initial residual = 0.00685381, Final residual = 8.86359e-07, No Iterations 29

mixingQuality = 0.216592
Time = 0.66s

ExecutionTime = 43.9802 s  ClockTime = 46 s

scalarTransport write:
DILUPBiCGStab:  Solving for C, Initial residual = 0.00682049, Final residual = 4.97236e-07, No Iterations 32

mixingQuality = 0.21988
Time = 0.67s

ExecutionTime = 44.5224 s  ClockTime = 47 s

scalarTransport write:
DILUPBiCGStab:  Solving for C, Initial residual = 0.00678902, Final residual = 9.19911e-07, No Iterations 31

mixingQuality = 0.223167
Time = 0.68s

ExecutionTime = 45.0573 s  ClockTime = 47 s

scalarTransport write:
DILUPBiCGStab:  Solving for C, Initial residual = 0.00675933, Final residual = 9.5092e-07, No Iterations 29

mixingQuality = 0.226453
Time = 0.69s

ExecutionTime = 45.5546 s  ClockTime = 48 s

scalarTransport write:
DILUPBiCGStab:  Solving for C, Initial residual = 0.00673133, Final residual = 8.70907e-07, No Iterations 30

mixingQuality = 0.22974
Time = 0.7s

ExecutionTime = 46.0744 s  ClockTime = 48 s

scalarTransport write:
DILUPBiCGStab:  Solving for C, Initial residual = 0.00670491, Final residual = 9.41042e-07, No Iterations 31

mixingQuality = 0.233025
Time = 0.71s

ExecutionTime = 46.6033 s  ClockTime = 49 s

scalarTransport write:
DILUPBiCGStab:  Solving for C, Initial residual = 0.00667997, Final residual = 9.94915e-07, No Iterations 31

mixingQuality = 0.23631
Time = 0.72s

ExecutionTime = 47.1322 s  ClockTime = 49 s

scalarTransport write:
DILUPBiCGStab:  Solving for C, Initial residual = 0.0066564, Final residual = 9.75708e-07, No Iterations 33

mixingQuality = 0.239594
Time = 0.73s

ExecutionTime = 47.6898 s  ClockTime = 50 s

scalarTransport write:
DILUPBiCGStab:  Solving for C, Initial residual = 0.00663411, Final residual = 9.49049e-07, No Iterations 36

mixingQuality = 0.242876
Time = 0.74s

ExecutionTime = 48.2949 s  ClockTime = 51 s

scalarTransport write:
DILUPBiCGStab:  Solving for C, Initial residual = 0.00661299, Final residual = 9.51975e-07, No Iterations 36

mixingQuality = 0.246157
Time = 0.75s

ExecutionTime = 48.9067 s  ClockTime = 51 s

scalarTransport write:
DILUPBiCGStab:  Solving for C, Initial residual = 0.00659293, Final residual = 9.933e-07, No Iterations 36

mixingQuality = 0.249436
Time = 0.76s

ExecutionTime = 49.521 s  ClockTime = 52 s

scalarTransport write:
DILUPBiCGStab:  Solving for C, Initial residual = 0.00657379, Final residual = 6.17344e-07, No Iterations 39

mixingQuality = 0.252712
Time = 0.77s

ExecutionTime = 50.175 s  ClockTime = 52 s

scalarTransport write:
DILUPBiCGStab:  Solving for C, Initial residual = 0.00655546, Final residual = 7.04098e-07, No Iterations 42

mixingQuality = 0.255985
Time = 0.78s

ExecutionTime = 50.876 s  ClockTime = 53 s

scalarTransport write:
DILUPBiCGStab:  Solving for C, Initial residual = 0.00653773, Final residual = 7.17591e-07, No Iterations 45

mixingQuality = 0.259253
Time = 0.79s

ExecutionTime = 51.6246 s  ClockTime = 54 s

scalarTransport write:
DILUPBiCGStab:  Solving for C, Initial residual = 0.00652043, Final residual = 9.78967e-07, No Iterations 40

mixingQuality = 0.262517
Time = 0.8s

ExecutionTime = 52.3038 s  ClockTime = 55 s

scalarTransport write:
DILUPBiCGStab:  Solving for C, Initial residual = 0.00650327, Final residual = 5.32362e-07, No Iterations 43

mixingQuality = 0.265775
Time = 0.81s

ExecutionTime = 53.0219 s  ClockTime = 55 s

scalarTransport write:
DILUPBiCGStab:  Solving for C, Initial residual = 0.00648595, Final residual = 8.48693e-07, No Iterations 45

mixingQuality = 0.269027
Time = 0.82s

ExecutionTime = 53.7782 s  ClockTime = 56 s

scalarTransport write:
DILUPBiCGStab:  Solving for C, Initial residual = 0.00646815, Final residual = 5.81688e-07, No Iterations 51

mixingQuality = 0.27227
Time = 0.83s

ExecutionTime = 54.6315 s  ClockTime = 57 s

scalarTransport write:
DILUPBiCGStab:  Solving for C, Initial residual = 0.00644957, Final residual = 9.81691e-07, No Iterations 44

mixingQuality = 0.275504
Time = 0.84s

ExecutionTime = 55.3734 s  ClockTime = 58 s

scalarTransport write:
DILUPBiCGStab:  Solving for C, Initial residual = 0.00642992, Final residual = 8.87684e-07, No Iterations 41

mixingQuality = 0.278728
Time = 0.85s

ExecutionTime = 56.0765 s  ClockTime = 58 s

scalarTransport write:
DILUPBiCGStab:  Solving for C, Initial residual = 0.00640884, Final residual = 8.55499e-07, No Iterations 43

mixingQuality = 0.281939
Time = 0.86s

ExecutionTime = 56.8045 s  ClockTime = 59 s

scalarTransport write:
DILUPBiCGStab:  Solving for C, Initial residual = 0.00638605, Final residual = 5.01264e-07, No Iterations 49

mixingQuality = 0.285137
Time = 0.87s

ExecutionTime = 57.6272 s  ClockTime = 60 s

scalarTransport write:
DILUPBiCGStab:  Solving for C, Initial residual = 0.00636125, Final residual = 4.42835e-07, No Iterations 50

mixingQuality = 0.288319
Time = 0.88s

ExecutionTime = 58.4668 s  ClockTime = 61 s

scalarTransport write:
DILUPBiCGStab:  Solving for C, Initial residual = 0.00633424, Final residual = 5.99462e-07, No Iterations 47

mixingQuality = 0.291484
Time = 0.89s

ExecutionTime = 59.2662 s  ClockTime = 62 s

scalarTransport write:
DILUPBiCGStab:  Solving for C, Initial residual = 0.00630484, Final residual = 8.07878e-07, No Iterations 48

mixingQuality = 0.29463
Time = 0.9s

ExecutionTime = 60.0763 s  ClockTime = 62 s

scalarTransport write:
DILUPBiCGStab:  Solving for C, Initial residual = 0.00627285, Final residual = 4.769e-07, No Iterations 49

mixingQuality = 0.297754
Time = 0.91s

ExecutionTime = 60.8997 s  ClockTime = 63 s

scalarTransport write:
DILUPBiCGStab:  Solving for C, Initial residual = 0.00623806, Final residual = 5.89033e-07, No Iterations 49

mixingQuality = 0.300856
Time = 0.92s

ExecutionTime = 61.7249 s  ClockTime = 64 s

scalarTransport write:
DILUPBiCGStab:  Solving for C, Initial residual = 0.00620028, Final residual = 3.81629e-07, No Iterations 50

mixingQuality = 0.303932
Time = 0.93s

ExecutionTime = 62.5628 s  ClockTime = 65 s

scalarTransport write:
DILUPBiCGStab:  Solving for C, Initial residual = 0.00615939, Final residual = 9.1065e-07, No Iterations 48

mixingQuality = 0.306982
Time = 0.94s

ExecutionTime = 63.3743 s  ClockTime = 66 s

scalarTransport write:
DILUPBiCGStab:  Solving for C, Initial residual = 0.00611524, Final residual = 8.02833e-07, No Iterations 49

mixingQuality = 0.310002
Time = 0.95s

ExecutionTime = 64.1977 s  ClockTime = 67 s

scalarTransport write:
DILUPBiCGStab:  Solving for C, Initial residual = 0.00606778, Final residual = 3.89351e-07, No Iterations 51

mixingQuality = 0.312991
Time = 0.96s

ExecutionTime = 65.0513 s  ClockTime = 67 s

scalarTransport write:
DILUPBiCGStab:  Solving for C, Initial residual = 0.00601695, Final residual = 9.3794e-07, No Iterations 48

mixingQuality = 0.315947
Time = 0.97s

ExecutionTime = 65.8603 s  ClockTime = 68 s

scalarTransport write:
DILUPBiCGStab:  Solving for C, Initial residual = 0.00596272, Final residual = 9.23346e-07, No Iterations 47

mixingQuality = 0.318868
Time = 0.98s

ExecutionTime = 66.6567 s  ClockTime = 69 s

scalarTransport write:
DILUPBiCGStab:  Solving for C, Initial residual = 0.00590514, Final residual = 5.81606e-07, No Iterations 49

mixingQuality = 0.321753
Time = 0.99s

ExecutionTime = 67.474 s  ClockTime = 70 s

scalarTransport write:
DILUPBiCGStab:  Solving for C, Initial residual = 0.00584425, Final residual = 6.88657e-07, No Iterations 49

mixingQuality = 0.324599
Time = 1s

ExecutionTime = 68.2694 s  ClockTime = 71 s

scalarTransport write:
DILUPBiCGStab:  Solving for C, Initial residual = 0.00578017, Final residual = 9.45458e-07, No Iterations 49

mixingQuality = 0.327405
Time = 1.01s

ExecutionTime = 69.0657 s  ClockTime = 71 s

scalarTransport write:
DILUPBiCGStab:  Solving for C, Initial residual = 0.00571301, Final residual = 8.56374e-07, No Iterations 50

mixingQuality = 0.33017
Time = 1.02s

ExecutionTime = 69.8676 s  ClockTime = 72 s

scalarTransport write:
DILUPBiCGStab:  Solving for C, Initial residual = 0.00564288, Final residual = 9.88636e-07, No Iterations 45

mixingQuality = 0.332892
Time = 1.03s

ExecutionTime = 70.602 s  ClockTime = 73 s

scalarTransport write:
DILUPBiCGStab:  Solving for C, Initial residual = 0.00556999, Final residual = 9.27277e-07, No Iterations 48

mixingQuality = 0.33557
Time = 1.04s

ExecutionTime = 71.3741 s  ClockTime = 74 s

scalarTransport write:
DILUPBiCGStab:  Solving for C, Initial residual = 0.00549454, Final residual = 9.41798e-07, No Iterations 45

mixingQuality = 0.338204
Time = 1.05s

ExecutionTime = 72.1073 s  ClockTime = 74 s

scalarTransport write:
DILUPBiCGStab:  Solving for C, Initial residual = 0.00541677, Final residual = 6.46955e-07, No Iterations 50

mixingQuality = 0.340791
Time = 1.06s

ExecutionTime = 72.9083 s  ClockTime = 75 s

scalarTransport write:
DILUPBiCGStab:  Solving for C, Initial residual = 0.00533693, Final residual = 4.99925e-07, No Iterations 51

mixingQuality = 0.343332
Time = 1.07s

ExecutionTime = 73.7261 s  ClockTime = 76 s

scalarTransport write:
DILUPBiCGStab:  Solving for C, Initial residual = 0.00525529, Final residual = 5.68808e-07, No Iterations 49

mixingQuality = 0.345826
Time = 1.08s

ExecutionTime = 74.5109 s  ClockTime = 77 s

scalarTransport write:
DILUPBiCGStab:  Solving for C, Initial residual = 0.0051721, Final residual = 7.42558e-07, No Iterations 48

mixingQuality = 0.348273
Time = 1.09s

ExecutionTime = 75.2828 s  ClockTime = 78 s

scalarTransport write:
DILUPBiCGStab:  Solving for C, Initial residual = 0.0050876, Final residual = 7.68731e-07, No Iterations 50

mixingQuality = 0.350671
Time = 1.1s

ExecutionTime = 76.0829 s  ClockTime = 78 s

scalarTransport write:
DILUPBiCGStab:  Solving for C, Initial residual = 0.00500204, Final residual = 9.24886e-07, No Iterations 47

mixingQuality = 0.353021
Time = 1.11s

ExecutionTime = 76.8438 s  ClockTime = 79 s

scalarTransport write:
DILUPBiCGStab:  Solving for C, Initial residual = 0.00491565, Final residual = 6.30003e-07, No Iterations 48

mixingQuality = 0.355323
Time = 1.12s

ExecutionTime = 77.6149 s  ClockTime = 80 s

scalarTransport write:
DILUPBiCGStab:  Solving for C, Initial residual = 0.00482863, Final residual = 9.01404e-07, No Iterations 49

mixingQuality = 0.357577
Time = 1.13s

ExecutionTime = 78.4021 s  ClockTime = 81 s

scalarTransport write:
DILUPBiCGStab:  Solving for C, Initial residual = 0.00474122, Final residual = 7.2105e-07, No Iterations 47

mixingQuality = 0.359783
Time = 1.14s

ExecutionTime = 79.158 s  ClockTime = 81 s

scalarTransport write:
DILUPBiCGStab:  Solving for C, Initial residual = 0.00465362, Final residual = 7.59976e-07, No Iterations 50

mixingQuality = 0.361942
Time = 1.15s

ExecutionTime = 79.9603 s  ClockTime = 82 s

scalarTransport write:
DILUPBiCGStab:  Solving for C, Initial residual = 0.00456603, Final residual = 9.42809e-07, No Iterations 47

mixingQuality = 0.364053
Time = 1.16s

ExecutionTime = 80.7154 s  ClockTime = 83 s

scalarTransport write:
DILUPBiCGStab:  Solving for C, Initial residual = 0.00447865, Final residual = 9.56323e-07, No Iterations 46

mixingQuality = 0.366118
Time = 1.17s

ExecutionTime = 81.4634 s  ClockTime = 84 s

scalarTransport write:
DILUPBiCGStab:  Solving for C, Initial residual = 0.0043916, Final residual = 9.3803e-07, No Iterations 46

mixingQuality = 0.368136
Time = 1.18s

ExecutionTime = 82.2015 s  ClockTime = 85 s

scalarTransport write:
DILUPBiCGStab:  Solving for C, Initial residual = 0.00430508, Final residual = 7.27379e-07, No Iterations 48

mixingQuality = 0.37011
Time = 1.19s

ExecutionTime = 82.9705 s  ClockTime = 85 s

scalarTransport write:
DILUPBiCGStab:  Solving for C, Initial residual = 0.00421927, Final residual = 9.4981e-07, No Iterations 46

mixingQuality = 0.372038
Time = 1.2s

ExecutionTime = 83.7108 s  ClockTime = 86 s

scalarTransport write:
DILUPBiCGStab:  Solving for C, Initial residual = 0.00413439, Final residual = 7.62419e-07, No Iterations 48

mixingQuality = 0.373923
Time = 1.21s

ExecutionTime = 84.4827 s  ClockTime = 87 s

scalarTransport write:
DILUPBiCGStab:  Solving for C, Initial residual = 0.00405065, Final residual = 7.57867e-07, No Iterations 46

mixingQuality = 0.375766
Time = 1.22s

ExecutionTime = 85.2236 s  ClockTime = 88 s

scalarTransport write:
DILUPBiCGStab:  Solving for C, Initial residual = 0.00396818, Final residual = 8.95999e-07, No Iterations 49

mixingQuality = 0.377566
Time = 1.23s

ExecutionTime = 86.0113 s  ClockTime = 88 s

scalarTransport write:
DILUPBiCGStab:  Solving for C, Initial residual = 0.00388717, Final residual = 9.29723e-07, No Iterations 48

mixingQuality = 0.379325
Time = 1.24s

ExecutionTime = 86.7921 s  ClockTime = 89 s

scalarTransport write:
DILUPBiCGStab:  Solving for C, Initial residual = 0.00380775, Final residual = 6.47924e-07, No Iterations 49

mixingQuality = 0.381045
Time = 1.25s

ExecutionTime = 87.5795 s  ClockTime = 90 s

scalarTransport write:
DILUPBiCGStab:  Solving for C, Initial residual = 0.00373, Final residual = 9.23834e-07, No Iterations 44

mixingQuality = 0.382726
Time = 1.26s

ExecutionTime = 88.2996 s  ClockTime = 91 s

scalarTransport write:
DILUPBiCGStab:  Solving for C, Initial residual = 0.00365405, Final residual = 4.7176e-07, No Iterations 48

mixingQuality = 0.384369
Time = 1.27s

ExecutionTime = 89.0719 s  ClockTime = 91 s

scalarTransport write:
DILUPBiCGStab:  Solving for C, Initial residual = 0.00357996, Final residual = 8.85552e-07, No Iterations 47

mixingQuality = 0.385976
Time = 1.28s

ExecutionTime = 89.8261 s  ClockTime = 92 s

scalarTransport write:
DILUPBiCGStab:  Solving for C, Initial residual = 0.00350779, Final residual = 9.66437e-07, No Iterations 45

mixingQuality = 0.387547
Time = 1.29s

ExecutionTime = 90.5585 s  ClockTime = 93 s

scalarTransport write:
DILUPBiCGStab:  Solving for C, Initial residual = 0.00343763, Final residual = 4.8684e-07, No Iterations 49

mixingQuality = 0.389084
Time = 1.3s

ExecutionTime = 91.3443 s  ClockTime = 94 s

scalarTransport write:
DILUPBiCGStab:  Solving for C, Initial residual = 0.00336953, Final residual = 9.57492e-07, No Iterations 44

mixingQuality = 0.390587
Time = 1.31s

ExecutionTime = 92.079 s  ClockTime = 94 s

scalarTransport write:
DILUPBiCGStab:  Solving for C, Initial residual = 0.00330352, Final residual = 9.06477e-07, No Iterations 45

mixingQuality = 0.392059
Time = 1.32s

ExecutionTime = 92.8338 s  ClockTime = 95 s

scalarTransport write:
DILUPBiCGStab:  Solving for C, Initial residual = 0.00323964, Final residual = 6.21343e-07, No Iterations 52

mixingQuality = 0.3935
Time = 1.33s

ExecutionTime = 93.6933 s  ClockTime = 96 s

scalarTransport write:
DILUPBiCGStab:  Solving for C, Initial residual = 0.00317791, Final residual = 8.25303e-07, No Iterations 43

mixingQuality = 0.394911
Time = 1.34s

ExecutionTime = 94.4205 s  ClockTime = 97 s

scalarTransport write:
DILUPBiCGStab:  Solving for C, Initial residual = 0.00311833, Final residual = 9.53094e-07, No Iterations 41

mixingQuality = 0.396294
Time = 1.35s

ExecutionTime = 95.1195 s  ClockTime = 97 s

scalarTransport write:
DILUPBiCGStab:  Solving for C, Initial residual = 0.00306088, Final residual = 8.40513e-07, No Iterations 42

mixingQuality = 0.397649
Time = 1.36s

ExecutionTime = 95.8222 s  ClockTime = 98 s

scalarTransport write:
DILUPBiCGStab:  Solving for C, Initial residual = 0.00300559, Final residual = 9.08983e-07, No Iterations 43

mixingQuality = 0.398977
Time = 1.37s

ExecutionTime = 96.5438 s  ClockTime = 99 s

scalarTransport write:
DILUPBiCGStab:  Solving for C, Initial residual = 0.00295244, Final residual = 9.764e-07, No Iterations 41

mixingQuality = 0.40028
Time = 1.38s

ExecutionTime = 97.2304 s  ClockTime = 100 s

scalarTransport write:
DILUPBiCGStab:  Solving for C, Initial residual = 0.0029014, Final residual = 6.70091e-07, No Iterations 43

mixingQuality = 0.40156
Time = 1.39s

ExecutionTime = 97.9504 s  ClockTime = 100 s

scalarTransport write:
DILUPBiCGStab:  Solving for C, Initial residual = 0.00285245, Final residual = 8.86549e-07, No Iterations 43

mixingQuality = 0.402815
Time = 1.4s

ExecutionTime = 98.6715 s  ClockTime = 101 s

scalarTransport write:
DILUPBiCGStab:  Solving for C, Initial residual = 0.00280555, Final residual = 6.09605e-07, No Iterations 47

mixingQuality = 0.404049
Time = 1.41s

ExecutionTime = 99.4531 s  ClockTime = 102 s

scalarTransport write:
DILUPBiCGStab:  Solving for C, Initial residual = 0.00276066, Final residual = 1.97993e-07, No Iterations 50

mixingQuality = 0.405261
Time = 1.42s

ExecutionTime = 100.283 s  ClockTime = 103 s

scalarTransport write:
DILUPBiCGStab:  Solving for C, Initial residual = 0.00271773, Final residual = 9.62595e-07, No Iterations 41

mixingQuality = 0.406453
Time = 1.43s

ExecutionTime = 100.97 s  ClockTime = 103 s

scalarTransport write:
DILUPBiCGStab:  Solving for C, Initial residual = 0.00267671, Final residual = 9.65499e-07, No Iterations 39

mixingQuality = 0.407626
Time = 1.44s

ExecutionTime = 101.636 s  ClockTime = 104 s

scalarTransport write:
DILUPBiCGStab:  Solving for C, Initial residual = 0.00263754, Final residual = 9.5824e-07, No Iterations 39

mixingQuality = 0.408781
Time = 1.45s

ExecutionTime = 102.3 s  ClockTime = 105 s

scalarTransport write:
DILUPBiCGStab:  Solving for C, Initial residual = 0.00260017, Final residual = 8.5211e-07, No Iterations 40

mixingQuality = 0.409917
Time = 1.46s

ExecutionTime = 102.974 s  ClockTime = 105 s

scalarTransport write:
DILUPBiCGStab:  Solving for C, Initial residual = 0.00256456, Final residual = 8.68168e-07, No Iterations 38

mixingQuality = 0.411038
Time = 1.47s

ExecutionTime = 103.615 s  ClockTime = 106 s

scalarTransport write:
DILUPBiCGStab:  Solving for C, Initial residual = 0.00253063, Final residual = 8.20508e-07, No Iterations 39

mixingQuality = 0.412142
Time = 1.48s

ExecutionTime = 104.271 s  ClockTime = 107 s

scalarTransport write:
DILUPBiCGStab:  Solving for C, Initial residual = 0.00249834, Final residual = 4.83899e-07, No Iterations 41

mixingQuality = 0.413231
Time = 1.49s

ExecutionTime = 104.958 s  ClockTime = 107 s

scalarTransport write:
DILUPBiCGStab:  Solving for C, Initial residual = 0.00246761, Final residual = 8.67591e-07, No Iterations 37

mixingQuality = 0.414305
Time = 1.5s

ExecutionTime = 105.588 s  ClockTime = 108 s

scalarTransport write:
DILUPBiCGStab:  Solving for C, Initial residual = 0.00243837, Final residual = 9.96163e-07, No Iterations 35

mixingQuality = 0.415366
Time = 1.51s

ExecutionTime = 106.188 s  ClockTime = 109 s

scalarTransport write:
DILUPBiCGStab:  Solving for C, Initial residual = 0.00241054, Final residual = 7.98363e-07, No Iterations 35

mixingQuality = 0.416414
Time = 1.52s

ExecutionTime = 106.784 s  ClockTime = 109 s

scalarTransport write:
DILUPBiCGStab:  Solving for C, Initial residual = 0.00238408, Final residual = 9.36436e-07, No Iterations 37

mixingQuality = 0.417449
Time = 1.53s

ExecutionTime = 107.408 s  ClockTime = 110 s

scalarTransport write:
DILUPBiCGStab:  Solving for C, Initial residual = 0.00235892, Final residual = 9.94318e-07, No Iterations 33

mixingQuality = 0.418473
Time = 1.54s

ExecutionTime = 107.977 s  ClockTime = 110 s

scalarTransport write:
DILUPBiCGStab:  Solving for C, Initial residual = 0.00233496, Final residual = 8.80528e-07, No Iterations 34

mixingQuality = 0.419486
Time = 1.55s

ExecutionTime = 108.556 s  ClockTime = 111 s

scalarTransport write:
DILUPBiCGStab:  Solving for C, Initial residual = 0.00231215, Final residual = 5.70127e-07, No Iterations 37

mixingQuality = 0.420487
Time = 1.56s

ExecutionTime = 109.183 s  ClockTime = 112 s

scalarTransport write:
DILUPBiCGStab:  Solving for C, Initial residual = 0.00229042, Final residual = 9.51929e-07, No Iterations 33

mixingQuality = 0.421479
Time = 1.57s

ExecutionTime = 109.745 s  ClockTime = 112 s

scalarTransport write:
DILUPBiCGStab:  Solving for C, Initial residual = 0.00226968, Final residual = 8.41148e-07, No Iterations 34

mixingQuality = 0.422461
Time = 1.58s

ExecutionTime = 110.321 s  ClockTime = 113 s

scalarTransport write:
DILUPBiCGStab:  Solving for C, Initial residual = 0.00224986, Final residual = 9.27725e-07, No Iterations 32

mixingQuality = 0.423433
Time = 1.59s

ExecutionTime = 110.876 s  ClockTime = 113 s

scalarTransport write:
DILUPBiCGStab:  Solving for C, Initial residual = 0.00223088, Final residual = 7.64429e-07, No Iterations 34

mixingQuality = 0.424397
Time = 1.6s

ExecutionTime = 111.456 s  ClockTime = 114 s

scalarTransport write:
DILUPBiCGStab:  Solving for C, Initial residual = 0.00221268, Final residual = 8.82523e-07, No Iterations 33

mixingQuality = 0.425352
Time = 1.61s

ExecutionTime = 112.02 s  ClockTime = 114 s

scalarTransport write:
DILUPBiCGStab:  Solving for C, Initial residual = 0.00219517, Final residual = 8.85686e-07, No Iterations 34

mixingQuality = 0.426299
Time = 1.62s

ExecutionTime = 112.598 s  ClockTime = 115 s

scalarTransport write:
DILUPBiCGStab:  Solving for C, Initial residual = 0.00217829, Final residual = 7.90318e-07, No Iterations 37

mixingQuality = 0.427239
Time = 1.63s

ExecutionTime = 113.223 s  ClockTime = 116 s

scalarTransport write:
DILUPBiCGStab:  Solving for C, Initial residual = 0.00216196, Final residual = 7.03372e-07, No Iterations 37

mixingQuality = 0.42817
Time = 1.64s

ExecutionTime = 113.848 s  ClockTime = 116 s

scalarTransport write:
DILUPBiCGStab:  Solving for C, Initial residual = 0.0021461, Final residual = 9.64086e-07, No Iterations 32

mixingQuality = 0.429095
Time = 1.65s

ExecutionTime = 114.404 s  ClockTime = 117 s

scalarTransport write:
DILUPBiCGStab:  Solving for C, Initial residual = 0.00213063, Final residual = 9.17494e-07, No Iterations 37

mixingQuality = 0.430012
Time = 1.66s

ExecutionTime = 115.028 s  ClockTime = 117 s

scalarTransport write:
DILUPBiCGStab:  Solving for C, Initial residual = 0.00211549, Final residual = 9.90079e-07, No Iterations 34

mixingQuality = 0.430922
Time = 1.67s

ExecutionTime = 115.613 s  ClockTime = 118 s

scalarTransport write:
DILUPBiCGStab:  Solving for C, Initial residual = 0.00210058, Final residual = 8.07466e-07, No Iterations 36

mixingQuality = 0.431825
Time = 1.68s

ExecutionTime = 116.222 s  ClockTime = 119 s

scalarTransport write:
DILUPBiCGStab:  Solving for C, Initial residual = 0.00208582, Final residual = 6.2829e-07, No Iterations 35

mixingQuality = 0.432722
Time = 1.69s

ExecutionTime = 116.815 s  ClockTime = 119 s

scalarTransport write:
DILUPBiCGStab:  Solving for C, Initial residual = 0.00207114, Final residual = 5.40872e-07, No Iterations 35

mixingQuality = 0.433612
Time = 1.7s

ExecutionTime = 117.412 s  ClockTime = 120 s

scalarTransport write:
DILUPBiCGStab:  Solving for C, Initial residual = 0.00205644, Final residual = 4.5956e-07, No Iterations 40

mixingQuality = 0.434496
Time = 1.71s

ExecutionTime = 118.085 s  ClockTime = 120 s

scalarTransport write:
DILUPBiCGStab:  Solving for C, Initial residual = 0.00204165, Final residual = 9.33603e-07, No Iterations 36

mixingQuality = 0.435373
Time = 1.72s

ExecutionTime = 118.695 s  ClockTime = 121 s

scalarTransport write:
DILUPBiCGStab:  Solving for C, Initial residual = 0.00202674, Final residual = 9.51405e-07, No Iterations 31

mixingQuality = 0.436244
Time = 1.73s

ExecutionTime = 119.235 s  ClockTime = 122 s

scalarTransport write:
DILUPBiCGStab:  Solving for C, Initial residual = 0.00201167, Final residual = 9.09152e-07, No Iterations 32

mixingQuality = 0.437108
Time = 1.74s

ExecutionTime = 119.783 s  ClockTime = 122 s

scalarTransport write:
DILUPBiCGStab:  Solving for C, Initial residual = 0.00199637, Final residual = 8.47003e-07, No Iterations 33

mixingQuality = 0.437966
Time = 1.75s

ExecutionTime = 120.345 s  ClockTime = 123 s

scalarTransport write:
DILUPBiCGStab:  Solving for C, Initial residual = 0.00198081, Final residual = 7.33712e-07, No Iterations 36

mixingQuality = 0.438817
Time = 1.76s

ExecutionTime = 120.954 s  ClockTime = 123 s

scalarTransport write:
DILUPBiCGStab:  Solving for C, Initial residual = 0.00196497, Final residual = 7.48514e-07, No Iterations 33

mixingQuality = 0.439661
Time = 1.77s

ExecutionTime = 121.517 s  ClockTime = 124 s

scalarTransport write:
DILUPBiCGStab:  Solving for C, Initial residual = 0.00194886, Final residual = 6.57127e-07, No Iterations 35

mixingQuality = 0.440498
Time = 1.78s

ExecutionTime = 122.114 s  ClockTime = 124 s

scalarTransport write:
DILUPBiCGStab:  Solving for C, Initial residual = 0.00193246, Final residual = 9.99844e-07, No Iterations 34

mixingQuality = 0.441329
Time = 1.79s

ExecutionTime = 122.7 s  ClockTime = 125 s

scalarTransport write:
DILUPBiCGStab:  Solving for C, Initial residual = 0.00191574, Final residual = 8.06642e-07, No Iterations 33

mixingQuality = 0.442153
Time = 1.8s

ExecutionTime = 123.262 s  ClockTime = 126 s

scalarTransport write:
DILUPBiCGStab:  Solving for C, Initial residual = 0.00189868, Final residual = 7.27943e-07, No Iterations 33

mixingQuality = 0.442969
Time = 1.81s

ExecutionTime = 123.825 s  ClockTime = 126 s

scalarTransport write:
DILUPBiCGStab:  Solving for C, Initial residual = 0.00188125, Final residual = 9.50335e-07, No Iterations 31

mixingQuality = 0.443778
Time = 1.82s

ExecutionTime = 124.365 s  ClockTime = 127 s

scalarTransport write:
DILUPBiCGStab:  Solving for C, Initial residual = 0.00186343, Final residual = 9.78568e-07, No Iterations 31

mixingQuality = 0.444579
Time = 1.83s

ExecutionTime = 124.904 s  ClockTime = 127 s

scalarTransport write:
DILUPBiCGStab:  Solving for C, Initial residual = 0.00184519, Final residual = 9.92439e-07, No Iterations 31

mixingQuality = 0.445372
Time = 1.84s

ExecutionTime = 125.443 s  ClockTime = 128 s

scalarTransport write:
DILUPBiCGStab:  Solving for C, Initial residual = 0.0018265, Final residual = 9.35278e-07, No Iterations 31

mixingQuality = 0.446157
Time = 1.85s

ExecutionTime = 125.981 s  ClockTime = 128 s

scalarTransport write:
DILUPBiCGStab:  Solving for C, Initial residual = 0.00180732, Final residual = 9.23422e-07, No Iterations 32

mixingQuality = 0.446934
Time = 1.86s

ExecutionTime = 126.528 s  ClockTime = 129 s

scalarTransport write:
DILUPBiCGStab:  Solving for C, Initial residual = 0.00178763, Final residual = 9.75755e-07, No Iterations 31

mixingQuality = 0.447703
Time = 1.87s

ExecutionTime = 127.066 s  ClockTime = 129 s

scalarTransport write:
DILUPBiCGStab:  Solving for C, Initial residual = 0.00176741, Final residual = 9.45127e-07, No Iterations 30

mixingQuality = 0.448463
Time = 1.88s

ExecutionTime = 127.591 s  ClockTime = 130 s

scalarTransport write:
DILUPBiCGStab:  Solving for C, Initial residual = 0.00174664, Final residual = 9.33009e-07, No Iterations 34

mixingQuality = 0.449213
Time = 1.89s

ExecutionTime = 128.169 s  ClockTime = 131 s

scalarTransport write:
DILUPBiCGStab:  Solving for C, Initial residual = 0.0017253, Final residual = 9.16047e-07, No Iterations 34

mixingQuality = 0.449955
Time = 1.9s

ExecutionTime = 128.757 s  ClockTime = 131 s

scalarTransport write:
DILUPBiCGStab:  Solving for C, Initial residual = 0.00170336, Final residual = 9.68459e-07, No Iterations 31

mixingQuality = 0.450687
Time = 1.91s

ExecutionTime = 129.297 s  ClockTime = 132 s

scalarTransport write:
DILUPBiCGStab:  Solving for C, Initial residual = 0.00168081, Final residual = 9.87457e-07, No Iterations 31

mixingQuality = 0.451409
Time = 1.92s

ExecutionTime = 129.827 s  ClockTime = 132 s

scalarTransport write:
DILUPBiCGStab:  Solving for C, Initial residual = 0.00165765, Final residual = 9.28243e-07, No Iterations 31

mixingQuality = 0.452121
Time = 1.93s

ExecutionTime = 130.369 s  ClockTime = 133 s

scalarTransport write:
DILUPBiCGStab:  Solving for C, Initial residual = 0.00163391, Final residual = 9.52625e-07, No Iterations 32

mixingQuality = 0.452823
Time = 1.94s

ExecutionTime = 130.923 s  ClockTime = 133 s

scalarTransport write:
DILUPBiCGStab:  Solving for C, Initial residual = 0.00160958, Final residual = 7.51333e-07, No Iterations 34

mixingQuality = 0.453514
Time = 1.95s

ExecutionTime = 131.501 s  ClockTime = 134 s

scalarTransport write:
DILUPBiCGStab:  Solving for C, Initial residual = 0.00158469, Final residual = 9.1738e-07, No Iterations 33

mixingQuality = 0.454195
Time = 1.96s

ExecutionTime = 132.064 s  ClockTime = 134 s

scalarTransport write:
DILUPBiCGStab:  Solving for C, Initial residual = 0.00155925, Final residual = 9.54855e-07, No Iterations 32

mixingQuality = 0.454864
Time = 1.97s

ExecutionTime = 132.611 s  ClockTime = 135 s

scalarTransport write:
DILUPBiCGStab:  Solving for C, Initial residual = 0.00153327, Final residual = 9.27131e-07, No Iterations 35

mixingQuality = 0.455522
Time = 1.98s

ExecutionTime = 133.216 s  ClockTime = 136 s

scalarTransport write:
DILUPBiCGStab:  Solving for C, Initial residual = 0.00150677, Final residual = 6.36623e-07, No Iterations 33

mixingQuality = 0.456169
Time = 1.99s

ExecutionTime = 133.778 s  ClockTime = 136 s

scalarTransport write:
DILUPBiCGStab:  Solving for C, Initial residual = 0.00147978, Final residual = 9.12426e-07, No Iterations 37

mixingQuality = 0.456805
Time = 2s

ExecutionTime = 134.4 s  ClockTime = 137 s

scalarTransport write:
DILUPBiCGStab:  Solving for C, Initial residual = 0.00145231, Final residual = 8.52776e-07, No Iterations 36

mixingQuality = 0.457428
Time = 2.01s

ExecutionTime = 135.009 s  ClockTime = 137 s

scalarTransport write:
DILUPBiCGStab:  Solving for C, Initial residual = 0.0014244, Final residual = 6.26951e-07, No Iterations 34

mixingQuality = 0.458039
Time = 2.02s

ExecutionTime = 135.589 s  ClockTime = 138 s

scalarTransport write:
DILUPBiCGStab:  Solving for C, Initial residual = 0.0013961, Final residual = 5.9863e-07, No Iterations 34

mixingQuality = 0.458639
Time = 2.03s

ExecutionTime = 136.166 s  ClockTime = 139 s

scalarTransport write:
DILUPBiCGStab:  Solving for C, Initial residual = 0.00136745, Final residual = 9.9056e-07, No Iterations 30

mixingQuality = 0.459226
Time = 2.04s

ExecutionTime = 136.688 s  ClockTime = 139 s

scalarTransport write:
DILUPBiCGStab:  Solving for C, Initial residual = 0.00133848, Final residual = 7.73356e-07, No Iterations 33

mixingQuality = 0.4598
Time = 2.05s

ExecutionTime = 137.25 s  ClockTime = 140 s

scalarTransport write:
DILUPBiCGStab:  Solving for C, Initial residual = 0.00130923, Final residual = 9.29079e-07, No Iterations 30

mixingQuality = 0.460362
Time = 2.06s

ExecutionTime = 137.774 s  ClockTime = 140 s

scalarTransport write:
DILUPBiCGStab:  Solving for C, Initial residual = 0.00127975, Final residual = 8.23393e-07, No Iterations 31

mixingQuality = 0.460911
Time = 2.07s

ExecutionTime = 138.306 s  ClockTime = 141 s

scalarTransport write:
DILUPBiCGStab:  Solving for C, Initial residual = 0.00125008, Final residual = 9.82483e-07, No Iterations 31

mixingQuality = 0.461448
Time = 2.08s

ExecutionTime = 138.837 s  ClockTime = 141 s

scalarTransport write:
DILUPBiCGStab:  Solving for C, Initial residual = 0.00122027, Final residual = 9.82168e-07, No Iterations 31

mixingQuality = 0.461972
Time = 2.09s

ExecutionTime = 139.375 s  ClockTime = 142 s

scalarTransport write:
DILUPBiCGStab:  Solving for C, Initial residual = 0.00119036, Final residual = 8.64111e-07, No Iterations 31

mixingQuality = 0.462483
Time = 2.1s

ExecutionTime = 139.908 s  ClockTime = 142 s

scalarTransport write:
DILUPBiCGStab:  Solving for C, Initial residual = 0.00116039, Final residual = 9.32047e-07, No Iterations 29

mixingQuality = 0.462981
Time = 2.11s

ExecutionTime = 140.414 s  ClockTime = 143 s

scalarTransport write:
DILUPBiCGStab:  Solving for C, Initial residual = 0.00113039, Final residual = 9.7602e-07, No Iterations 30

mixingQuality = 0.463466
Time = 2.12s

ExecutionTime = 140.937 s  ClockTime = 143 s

scalarTransport write:
DILUPBiCGStab:  Solving for C, Initial residual = 0.00110042, Final residual = 4.32985e-07, No Iterations 35

mixingQuality = 0.463938
Time = 2.13s

ExecutionTime = 141.535 s  ClockTime = 144 s

scalarTransport write:
DILUPBiCGStab:  Solving for C, Initial residual = 0.0010705, Final residual = 8.43307e-07, No Iterations 31

mixingQuality = 0.464398
Time = 2.14s

ExecutionTime = 142.064 s  ClockTime = 144 s

scalarTransport write:
DILUPBiCGStab:  Solving for C, Initial residual = 0.00104069, Final residual = 5.90483e-07, No Iterations 33

mixingQuality = 0.464844
Time = 2.15s

ExecutionTime = 142.627 s  ClockTime = 145 s

scalarTransport write:
DILUPBiCGStab:  Solving for C, Initial residual = 0.00101102, Final residual = 5.9741e-07, No Iterations 32

mixingQuality = 0.465278
Time = 2.16s

ExecutionTime = 143.175 s  ClockTime = 146 s

scalarTransport write:
DILUPBiCGStab:  Solving for C, Initial residual = 0.000981508, Final residual = 9.38919e-07, No Iterations 28

mixingQuality = 0.465699
Time = 2.17s

ExecutionTime = 143.666 s  ClockTime = 146 s

scalarTransport write:
DILUPBiCGStab:  Solving for C, Initial residual = 0.000952217, Final residual = 9.34141e-07, No Iterations 29

mixingQuality = 0.466108
Time = 2.18s

ExecutionTime = 144.175 s  ClockTime = 147 s

scalarTransport write:
DILUPBiCGStab:  Solving for C, Initial residual = 0.000923184, Final residual = 9.54687e-07, No Iterations 29

mixingQuality = 0.466504
Time = 2.19s

ExecutionTime = 144.675 s  ClockTime = 147 s

scalarTransport write:
DILUPBiCGStab:  Solving for C, Initial residual = 0.000894409, Final residual = 9.86811e-07, No Iterations 28

mixingQuality = 0.466888
Time = 2.2s

ExecutionTime = 145.167 s  ClockTime = 148 s

scalarTransport write:
DILUPBiCGStab:  Solving for C, Initial residual = 0.000865956, Final residual = 8.68069e-07, No Iterations 31

mixingQuality = 0.467259
Time = 2.21s

ExecutionTime = 145.7 s  ClockTime = 148 s

scalarTransport write:
DILUPBiCGStab:  Solving for C, Initial residual = 0.000837836, Final residual = 8.3166e-07, No Iterations 29

mixingQuality = 0.467619
Time = 2.22s

ExecutionTime = 146.2 s  ClockTime = 149 s

scalarTransport write:
DILUPBiCGStab:  Solving for C, Initial residual = 0.000810085, Final residual = 9.45595e-07, No Iterations 27

mixingQuality = 0.467966
Time = 2.23s

ExecutionTime = 146.678 s  ClockTime = 149 s

scalarTransport write:
DILUPBiCGStab:  Solving for C, Initial residual = 0.000782727, Final residual = 8.02317e-07, No Iterations 32

mixingQuality = 0.468302
Time = 2.24s

ExecutionTime = 147.224 s  ClockTime = 150 s

scalarTransport write:
DILUPBiCGStab:  Solving for C, Initial residual = 0.000755793, Final residual = 9.21743e-07, No Iterations 28

mixingQuality = 0.468626
Time = 2.25s

ExecutionTime = 147.708 s  ClockTime = 150 s

scalarTransport write:
DILUPBiCGStab:  Solving for C, Initial residual = 0.000729289, Final residual = 8.07262e-07, No Iterations 31

mixingQuality = 0.468938
Time = 2.26s

ExecutionTime = 148.24 s  ClockTime = 151 s

scalarTransport write:
DILUPBiCGStab:  Solving for C, Initial residual = 0.000703255, Final residual = 9.72687e-07, No Iterations 27

mixingQuality = 0.46924
Time = 2.27s

ExecutionTime = 148.709 s  ClockTime = 151 s

scalarTransport write:
DILUPBiCGStab:  Solving for C, Initial residual = 0.0006777, Final residual = 6.6984e-07, No Iterations 32

mixingQuality = 0.46953
Time = 2.28s

ExecutionTime = 149.256 s  ClockTime = 152 s

scalarTransport write:
DILUPBiCGStab:  Solving for C, Initial residual = 0.000652638, Final residual = 9.9739e-07, No Iterations 26

mixingQuality = 0.46981
Time = 2.29s

ExecutionTime = 149.718 s  ClockTime = 152 s

scalarTransport write:
DILUPBiCGStab:  Solving for C, Initial residual = 0.000628117, Final residual = 9.45539e-07, No Iterations 29

mixingQuality = 0.470079
Time = 2.3s

ExecutionTime = 150.218 s  ClockTime = 153 s

scalarTransport write:
DILUPBiCGStab:  Solving for C, Initial residual = 0.000604111, Final residual = 6.75704e-07, No Iterations 29

mixingQuality = 0.470338
Time = 2.31s

ExecutionTime = 150.72 s  ClockTime = 153 s

scalarTransport write:
DILUPBiCGStab:  Solving for C, Initial residual = 0.000580658, Final residual = 8.54299e-07, No Iterations 25

mixingQuality = 0.470586
Time = 2.32s

ExecutionTime = 151.164 s  ClockTime = 154 s

scalarTransport write:
DILUPBiCGStab:  Solving for C, Initial residual = 0.000557763, Final residual = 7.69134e-07, No Iterations 28

mixingQuality = 0.470825
Time = 2.33s

ExecutionTime = 151.651 s  ClockTime = 154 s

scalarTransport write:
DILUPBiCGStab:  Solving for C, Initial residual = 0.000535427, Final residual = 8.41306e-07, No Iterations 28

mixingQuality = 0.471054
Time = 2.34s

ExecutionTime = 152.138 s  ClockTime = 155 s

scalarTransport write:
DILUPBiCGStab:  Solving for C, Initial residual = 0.000513672, Final residual = 9.72365e-07, No Iterations 25

mixingQuality = 0.471274
Time = 2.35s

ExecutionTime = 152.577 s  ClockTime = 155 s

scalarTransport write:
DILUPBiCGStab:  Solving for C, Initial residual = 0.00049251, Final residual = 9.94268e-07, No Iterations 24

mixingQuality = 0.471485
Time = 2.36s

ExecutionTime = 153.006 s  ClockTime = 155 s

scalarTransport write:
DILUPBiCGStab:  Solving for C, Initial residual = 0.000471919, Final residual = 8.99887e-07, No Iterations 26

mixingQuality = 0.471687
Time = 2.37s

ExecutionTime = 153.459 s  ClockTime = 156 s

scalarTransport write:
DILUPBiCGStab:  Solving for C, Initial residual = 0.000451895, Final residual = 8.64155e-07, No Iterations 26

mixingQuality = 0.47188
Time = 2.38s

ExecutionTime = 153.912 s  ClockTime = 156 s

scalarTransport write:
DILUPBiCGStab:  Solving for C, Initial residual = 0.000432493, Final residual = 9.46945e-07, No Iterations 23

mixingQuality = 0.472065
Time = 2.39s

ExecutionTime = 154.327 s  ClockTime = 157 s

scalarTransport write:
DILUPBiCGStab:  Solving for C, Initial residual = 0.000413646, Final residual = 9.06604e-07, No Iterations 26

mixingQuality = 0.472242
Time = 2.4s

ExecutionTime = 154.787 s  ClockTime = 157 s

scalarTransport write:
DILUPBiCGStab:  Solving for C, Initial residual = 0.000395392, Final residual = 8.86821e-07, No Iterations 24

mixingQuality = 0.472411
Time = 2.41s

ExecutionTime = 155.22 s  ClockTime = 158 s

scalarTransport write:
DILUPBiCGStab:  Solving for C, Initial residual = 0.000377733, Final residual = 7.52012e-07, No Iterations 27

mixingQuality = 0.472572
Time = 2.42s

ExecutionTime = 155.688 s  ClockTime = 158 s

scalarTransport write:
DILUPBiCGStab:  Solving for C, Initial residual = 0.000360639, Final residual = 6.81237e-07, No Iterations 25

mixingQuality = 0.472726
Time = 2.43s

ExecutionTime = 156.126 s  ClockTime = 159 s

scalarTransport write:
DILUPBiCGStab:  Solving for C, Initial residual = 0.000344133, Final residual = 9.48089e-07, No Iterations 24

mixingQuality = 0.472873
Time = 2.44s

ExecutionTime = 156.556 s  ClockTime = 159 s

scalarTransport write:
DILUPBiCGStab:  Solving for C, Initial residual = 0.000328212, Final residual = 5.53892e-07, No Iterations 25

mixingQuality = 0.473013
Time = 2.45s

ExecutionTime = 156.994 s  ClockTime = 159 s

scalarTransport write:
DILUPBiCGStab:  Solving for C, Initial residual = 0.000312827, Final residual = 9.89009e-07, No Iterations 22

mixingQuality = 0.473147
Time = 2.46s

ExecutionTime = 157.384 s  ClockTime = 160 s

scalarTransport write:
DILUPBiCGStab:  Solving for C, Initial residual = 0.000298008, Final residual = 4.18918e-07, No Iterations 28

mixingQuality = 0.473274
Time = 2.47s

ExecutionTime = 157.87 s  ClockTime = 160 s

scalarTransport write:
DILUPBiCGStab:  Solving for C, Initial residual = 0.000283721, Final residual = 8.81561e-07, No Iterations 22

mixingQuality = 0.473395
Time = 2.48s

ExecutionTime = 158.261 s  ClockTime = 161 s

scalarTransport write:
DILUPBiCGStab:  Solving for C, Initial residual = 0.000269993, Final residual = 8.95584e-07, No Iterations 21

mixingQuality = 0.47351
Time = 2.49s

ExecutionTime = 158.637 s  ClockTime = 161 s

scalarTransport write:
DILUPBiCGStab:  Solving for C, Initial residual = 0.000256785, Final residual = 4.49557e-07, No Iterations 27

mixingQuality = 0.473619
Time = 2.5s

ExecutionTime = 159.106 s  ClockTime = 162 s

scalarTransport write:
DILUPBiCGStab:  Solving for C, Initial residual = 0.000244089, Final residual = 7.98479e-07, No Iterations 23

mixingQuality = 0.473724
Time = 2.51s

ExecutionTime = 159.513 s  ClockTime = 162 s

scalarTransport write:
DILUPBiCGStab:  Solving for C, Initial residual = 0.000231918, Final residual = 4.75117e-07, No Iterations 24

mixingQuality = 0.473822
Time = 2.52s

ExecutionTime = 159.935 s  ClockTime = 162 s

scalarTransport write:
DILUPBiCGStab:  Solving for C, Initial residual = 0.000220225, Final residual = 9.46304e-07, No Iterations 20

mixingQuality = 0.473916
Time = 2.53s

ExecutionTime = 160.296 s  ClockTime = 163 s

scalarTransport write:
DILUPBiCGStab:  Solving for C, Initial residual = 0.000209025, Final residual = 9.46102e-07, No Iterations 24

mixingQuality = 0.474005
Time = 2.54s

ExecutionTime = 160.727 s  ClockTime = 163 s

scalarTransport write:
DILUPBiCGStab:  Solving for C, Initial residual = 0.000198299, Final residual = 9.09072e-07, No Iterations 22

mixingQuality = 0.47409
Time = 2.55s

ExecutionTime = 161.117 s  ClockTime = 164 s

scalarTransport write:
DILUPBiCGStab:  Solving for C, Initial residual = 0.000188011, Final residual = 9.77222e-07, No Iterations 19

mixingQuality = 0.47417
Time = 2.56s

ExecutionTime = 161.46 s  ClockTime = 164 s

scalarTransport write:
DILUPBiCGStab:  Solving for C, Initial residual = 0.000178222, Final residual = 4.87335e-07, No Iterations 23

mixingQuality = 0.474245
Time = 2.57s

ExecutionTime = 161.867 s  ClockTime = 164 s

scalarTransport write:
DILUPBiCGStab:  Solving for C, Initial residual = 0.000168789, Final residual = 9.91604e-07, No Iterations 18

mixingQuality = 0.474317
Time = 2.58s

ExecutionTime = 162.195 s  ClockTime = 165 s

scalarTransport write:
DILUPBiCGStab:  Solving for C, Initial residual = 0.000159811, Final residual = 6.29846e-07, No Iterations 20

mixingQuality = 0.474385
Time = 2.59s

ExecutionTime = 162.555 s  ClockTime = 165 s

scalarTransport write:
DILUPBiCGStab:  Solving for C, Initial residual = 0.000151239, Final residual = 9.53012e-07, No Iterations 19

mixingQuality = 0.47445
Time = 2.6s

ExecutionTime = 162.908 s  ClockTime = 165 s

scalarTransport write:
DILUPBiCGStab:  Solving for C, Initial residual = 0.000143083, Final residual = 9.02577e-07, No Iterations 21

mixingQuality = 0.47451
Time = 2.61s

ExecutionTime = 163.283 s  ClockTime = 166 s

scalarTransport write:
DILUPBiCGStab:  Solving for C, Initial residual = 0.000135277, Final residual = 9.11282e-07, No Iterations 21

mixingQuality = 0.474568
Time = 2.62s

ExecutionTime = 163.658 s  ClockTime = 166 s

scalarTransport write:
DILUPBiCGStab:  Solving for C, Initial residual = 0.000127833, Final residual = 8.97788e-07, No Iterations 17

mixingQuality = 0.474622
Time = 2.63s

ExecutionTime = 163.978 s  ClockTime = 166 s

scalarTransport write:
DILUPBiCGStab:  Solving for C, Initial residual = 0.000120759, Final residual = 5.21139e-07, No Iterations 21

mixingQuality = 0.474673
Time = 2.64s

ExecutionTime = 164.354 s  ClockTime = 167 s

scalarTransport write:
DILUPBiCGStab:  Solving for C, Initial residual = 0.000114042, Final residual = 9.50275e-07, No Iterations 19

mixingQuality = 0.474722
Time = 2.65s

ExecutionTime = 164.698 s  ClockTime = 167 s

scalarTransport write:
DILUPBiCGStab:  Solving for C, Initial residual = 0.000107638, Final residual = 3.53871e-07, No Iterations 21

mixingQuality = 0.474768
Time = 2.66s

ExecutionTime = 165.071 s  ClockTime = 167 s

scalarTransport write:
DILUPBiCGStab:  Solving for C, Initial residual = 0.000101525, Final residual = 9.94199e-07, No Iterations 15

mixingQuality = 0.474811
Time = 2.67s

ExecutionTime = 165.36 s  ClockTime = 168 s

scalarTransport write:
DILUPBiCGStab:  Solving for C, Initial residual = 9.57558e-05, Final residual = 6.48946e-07, No Iterations 18

mixingQuality = 0.474851
Time = 2.68s

ExecutionTime = 165.691 s  ClockTime = 168 s

scalarTransport write:
DILUPBiCGStab:  Solving for C, Initial residual = 9.02469e-05, Final residual = 4.86447e-07, No Iterations 19

mixingQuality = 0.47489
Time = 2.69s

ExecutionTime = 166.036 s  ClockTime = 168 s

scalarTransport write:
DILUPBiCGStab:  Solving for C, Initial residual = 8.50361e-05, Final residual = 6.83621e-07, No Iterations 17

mixingQuality = 0.474926
Time = 2.7s

ExecutionTime = 166.348 s  ClockTime = 169 s

scalarTransport write:
DILUPBiCGStab:  Solving for C, Initial residual = 8.00907e-05, Final residual = 6.43609e-07, No Iterations 17

mixingQuality = 0.47496
Time = 2.71s

ExecutionTime = 166.66 s  ClockTime = 169 s

scalarTransport write:
DILUPBiCGStab:  Solving for C, Initial residual = 7.54707e-05, Final residual = 7.87056e-07, No Iterations 15

mixingQuality = 0.474992
Time = 2.72s

ExecutionTime = 166.942 s  ClockTime = 169 s

scalarTransport write:
DILUPBiCGStab:  Solving for C, Initial residual = 7.09655e-05, Final residual = 9.06928e-07, No Iterations 16

mixingQuality = 0.475022
Time = 2.73s

ExecutionTime = 167.248 s  ClockTime = 170 s

scalarTransport write:
DILUPBiCGStab:  Solving for C, Initial residual = 6.67757e-05, Final residual = 9.12503e-07, No Iterations 14

mixingQuality = 0.47505
Time = 2.74s

ExecutionTime = 167.513 s  ClockTime = 170 s

scalarTransport write:
DILUPBiCGStab:  Solving for C, Initial residual = 6.28073e-05, Final residual = 9.7963e-07, No Iterations 13

mixingQuality = 0.475077
Time = 2.75s

ExecutionTime = 167.771 s  ClockTime = 170 s

scalarTransport write:
DILUPBiCGStab:  Solving for C, Initial residual = 5.90381e-05, Final residual = 9.24403e-07, No Iterations 14

mixingQuality = 0.475102
Time = 2.76s

ExecutionTime = 168.036 s  ClockTime = 170 s

scalarTransport write:
DILUPBiCGStab:  Solving for C, Initial residual = 5.54715e-05, Final residual = 9.41542e-07, No Iterations 14

mixingQuality = 0.475125
Time = 2.77s

ExecutionTime = 168.304 s  ClockTime = 171 s

scalarTransport write:
DILUPBiCGStab:  Solving for C, Initial residual = 5.21192e-05, Final residual = 9.50291e-07, No Iterations 13

mixingQuality = 0.475147
Time = 2.78s

ExecutionTime = 168.554 s  ClockTime = 171 s

scalarTransport write:
DILUPBiCGStab:  Solving for C, Initial residual = 4.89391e-05, Final residual = 9.5129e-07, No Iterations 13

mixingQuality = 0.475168
Time = 2.79s

ExecutionTime = 168.804 s  ClockTime = 171 s

scalarTransport write:
DILUPBiCGStab:  Solving for C, Initial residual = 4.59369e-05, Final residual = 8.45039e-07, No Iterations 17

mixingQuality = 0.475187
Time = 2.8s

ExecutionTime = 169.115 s  ClockTime = 172 s

scalarTransport write:
DILUPBiCGStab:  Solving for C, Initial residual = 4.31035e-05, Final residual = 9.25278e-07, No Iterations 13

mixingQuality = 0.475206
Time = 2.81s

ExecutionTime = 169.365 s  ClockTime = 172 s

scalarTransport write:
DILUPBiCGStab:  Solving for C, Initial residual = 4.04332e-05, Final residual = 9.52362e-07, No Iterations 12

mixingQuality = 0.475223
Time = 2.82s

ExecutionTime = 169.598 s  ClockTime = 172 s

scalarTransport write:
DILUPBiCGStab:  Solving for C, Initial residual = 3.79132e-05, Final residual = 9.73841e-07, No Iterations 13

mixingQuality = 0.475239
Time = 2.83s

ExecutionTime = 169.847 s  ClockTime = 172 s

scalarTransport write:
DILUPBiCGStab:  Solving for C, Initial residual = 3.55501e-05, Final residual = 9.85434e-07, No Iterations 12

mixingQuality = 0.475254
Time = 2.84s

ExecutionTime = 170.081 s  ClockTime = 172 s

scalarTransport write:
DILUPBiCGStab:  Solving for C, Initial residual = 3.33157e-05, Final residual = 8.67198e-07, No Iterations 12

mixingQuality = 0.475268
Time = 2.85s

ExecutionTime = 170.315 s  ClockTime = 173 s

scalarTransport write:
DILUPBiCGStab:  Solving for C, Initial residual = 3.12073e-05, Final residual = 9.09538e-07, No Iterations 11

mixingQuality = 0.475281
Time = 2.86s

ExecutionTime = 170.541 s  ClockTime = 173 s

scalarTransport write:
DILUPBiCGStab:  Solving for C, Initial residual = 2.92255e-05, Final residual = 9.94012e-07, No Iterations 12

mixingQuality = 0.475293
Time = 2.87s

ExecutionTime = 170.774 s  ClockTime = 173 s

scalarTransport write:
DILUPBiCGStab:  Solving for C, Initial residual = 2.7355e-05, Final residual = 5.75131e-07, No Iterations 15

mixingQuality = 0.475305
Time = 2.88s

ExecutionTime = 171.056 s  ClockTime = 173 s

scalarTransport write:
DILUPBiCGStab:  Solving for C, Initial residual = 2.56076e-05, Final residual = 9.79939e-07, No Iterations 10

mixingQuality = 0.475316
Time = 2.89s

ExecutionTime = 171.258 s  ClockTime = 174 s

scalarTransport write:
DILUPBiCGStab:  Solving for C, Initial residual = 2.39749e-05, Final residual = 6.77222e-07, No Iterations 12

mixingQuality = 0.475326
Time = 2.9s

ExecutionTime = 171.493 s  ClockTime = 174 s

scalarTransport write:
DILUPBiCGStab:  Solving for C, Initial residual = 2.24277e-05, Final residual = 9.30122e-07, No Iterations 11

mixingQuality = 0.475335
Time = 2.91s

ExecutionTime = 171.72 s  ClockTime = 174 s

scalarTransport write:
DILUPBiCGStab:  Solving for C, Initial residual = 2.09705e-05, Final residual = 4.76739e-07, No Iterations 14

mixingQuality = 0.475344
Time = 2.92s

ExecutionTime = 171.984 s  ClockTime = 174 s

scalarTransport write:
DILUPBiCGStab:  Solving for C, Initial residual = 1.96204e-05, Final residual = 9.67769e-07, No Iterations 10

mixingQuality = 0.475352
Time = 2.93s

ExecutionTime = 172.195 s  ClockTime = 175 s

scalarTransport write:
DILUPBiCGStab:  Solving for C, Initial residual = 1.83466e-05, Final residual = 6.95813e-07, No Iterations 13

mixingQuality = 0.47536
Time = 2.94s

ExecutionTime = 172.445 s  ClockTime = 175 s

scalarTransport write:
DILUPBiCGStab:  Solving for C, Initial residual = 1.71432e-05, Final residual = 9.03931e-07, No Iterations 10

mixingQuality = 0.475367
Time = 2.95s

ExecutionTime = 172.656 s  ClockTime = 175 s

scalarTransport write:
DILUPBiCGStab:  Solving for C, Initial residual = 1.60113e-05, Final residual = 8.81263e-07, No Iterations 11

mixingQuality = 0.475374
Time = 2.96s

ExecutionTime = 172.882 s  ClockTime = 175 s

scalarTransport write:
DILUPBiCGStab:  Solving for C, Initial residual = 1.49585e-05, Final residual = 9.69934e-07, No Iterations 10

mixingQuality = 0.47538
Time = 2.97s

ExecutionTime = 173.092 s  ClockTime = 176 s

scalarTransport write:
DILUPBiCGStab:  Solving for C, Initial residual = 1.39831e-05, Final residual = 9.26708e-07, No Iterations 11

mixingQuality = 0.475386
Time = 2.98s

ExecutionTime = 173.311 s  ClockTime = 176 s

scalarTransport write:
DILUPBiCGStab:  Solving for C, Initial residual = 1.30626e-05, Final residual = 9.86208e-07, No Iterations 10

mixingQuality = 0.475392
Time = 2.99s

ExecutionTime = 173.514 s  ClockTime = 176 s

scalarTransport write:
DILUPBiCGStab:  Solving for C, Initial residual = 1.22056e-05, Final residual = 9.75898e-07, No Iterations 10

mixingQuality = 0.475397
Time = 3s

ExecutionTime = 173.726 s  ClockTime = 176 s

scalarTransport write:
DILUPBiCGStab:  Solving for C, Initial residual = 1.14455e-05, Final residual = 8.74904e-07, No Iterations 9

mixingQuality = 0.475402
Time = 3.01s

ExecutionTime = 173.92 s  ClockTime = 176 s

scalarTransport write:
DILUPBiCGStab:  Solving for C, Initial residual = 1.06678e-05, Final residual = 9.17117e-07, No Iterations 8

mixingQuality = 0.475406
Time = 3.02s

ExecutionTime = 174.098 s  ClockTime = 177 s

scalarTransport write:
DILUPBiCGStab:  Solving for C, Initial residual = 9.95138e-06, Final residual = 9.48353e-07, No Iterations 9

mixingQuality = 0.47541
Time = 3.03s

ExecutionTime = 174.285 s  ClockTime = 177 s

scalarTransport write:
DILUPBiCGStab:  Solving for C, Initial residual = 9.30931e-06, Final residual = 9.25777e-07, No Iterations 9

mixingQuality = 0.475414
Time = 3.04s

ExecutionTime = 174.472 s  ClockTime = 177 s

scalarTransport write:
DILUPBiCGStab:  Solving for C, Initial residual = 8.74372e-06, Final residual = 6.41408e-07, No Iterations 10

mixingQuality = 0.475418
Time = 3.05s

ExecutionTime = 174.674 s  ClockTime = 177 s

scalarTransport write:
DILUPBiCGStab:  Solving for C, Initial residual = 8.13571e-06, Final residual = 8.99881e-07, No Iterations 8

mixingQuality = 0.475421
Time = 3.06s

ExecutionTime = 174.853 s  ClockTime = 177 s

scalarTransport write:
DILUPBiCGStab:  Solving for C, Initial residual = 7.58099e-06, Final residual = 9.72402e-07, No Iterations 9

mixingQuality = 0.475425
Time = 3.07s

ExecutionTime = 175.048 s  ClockTime = 177 s

scalarTransport write:
DILUPBiCGStab:  Solving for C, Initial residual = 7.09931e-06, Final residual = 9.93279e-07, No Iterations 8

mixingQuality = 0.475428
Time = 3.08s

ExecutionTime = 175.227 s  ClockTime = 178 s

scalarTransport write:
DILUPBiCGStab:  Solving for C, Initial residual = 6.6606e-06, Final residual = 4.2672e-07, No Iterations 10

mixingQuality = 0.47543
Time = 3.09s

ExecutionTime = 175.43 s  ClockTime = 178 s

scalarTransport write:
DILUPBiCGStab:  Solving for C, Initial residual = 6.18789e-06, Final residual = 8.94321e-07, No Iterations 6

mixingQuality = 0.475433
Time = 3.1s

ExecutionTime = 175.578 s  ClockTime = 178 s

scalarTransport write:
DILUPBiCGStab:  Solving for C, Initial residual = 5.76004e-06, Final residual = 8.96925e-07, No Iterations 7

mixingQuality = 0.475435
Time = 3.11s

ExecutionTime = 175.741 s  ClockTime = 178 s

scalarTransport write:
DILUPBiCGStab:  Solving for C, Initial residual = 5.38474e-06, Final residual = 9.60648e-07, No Iterations 7

mixingQuality = 0.475438
Time = 3.12s

ExecutionTime = 175.897 s  ClockTime = 178 s

scalarTransport write:
DILUPBiCGStab:  Solving for C, Initial residual = 5.0304e-06, Final residual = 7.8674e-07, No Iterations 7

mixingQuality = 0.47544
Time = 3.13s

ExecutionTime = 176.053 s  ClockTime = 178 s

scalarTransport write:
DILUPBiCGStab:  Solving for C, Initial residual = 4.70018e-06, Final residual = 8.57757e-07, No Iterations 6

mixingQuality = 0.475442
Time = 3.14s

ExecutionTime = 176.2 s  ClockTime = 179 s

scalarTransport write:
DILUPBiCGStab:  Solving for C, Initial residual = 4.45473e-06, Final residual = 9.47822e-07, No Iterations 5

mixingQuality = 0.475444
Time = 3.15s

ExecutionTime = 176.332 s  ClockTime = 179 s

scalarTransport write:
DILUPBiCGStab:  Solving for C, Initial residual = 4.14701e-06, Final residual = 5.24382e-07, No Iterations 7

mixingQuality = 0.475445
Time = 3.16s

ExecutionTime = 176.49 s  ClockTime = 179 s

scalarTransport write:
DILUPBiCGStab:  Solving for C, Initial residual = 3.83273e-06, Final residual = 9.00031e-07, No Iterations 5

mixingQuality = 0.475447
Time = 3.17s

ExecutionTime = 176.614 s  ClockTime = 179 s

scalarTransport write:
DILUPBiCGStab:  Solving for C, Initial residual = 3.63907e-06, Final residual = 7.47705e-07, No Iterations 7

mixingQuality = 0.475448
Time = 3.18s

ExecutionTime = 176.769 s  ClockTime = 179 s

scalarTransport write:
DILUPBiCGStab:  Solving for C, Initial residual = 3.37146e-06, Final residual = 9.13929e-07, No Iterations 8

mixingQuality = 0.47545
Time = 3.19s

ExecutionTime = 176.94 s  ClockTime = 179 s

scalarTransport write:
DILUPBiCGStab:  Solving for C, Initial residual = 3.23679e-06, Final residual = 4.7004e-07, No Iterations 7

mixingQuality = 0.475451
Time = 3.2s

ExecutionTime = 177.095 s  ClockTime = 180 s

scalarTransport write:
DILUPBiCGStab:  Solving for C, Initial residual = 2.89878e-06, Final residual = 2.38983e-07, No Iterations 9

mixingQuality = 0.475452
Time = 3.21s

ExecutionTime = 177.282 s  ClockTime = 180 s

scalarTransport write:
DILUPBiCGStab:  Solving for C, Initial residual = 2.68652e-06, Final residual = 9.39936e-07, No Iterations 2

mixingQuality = 0.475453
Time = 3.22s

ExecutionTime = 177.367 s  ClockTime = 180 s

scalarTransport write:
DILUPBiCGStab:  Solving for C, Initial residual = 2.55285e-06, Final residual = 8.0435e-07, No Iterations 6

mixingQuality = 0.475454
Time = 3.23s

ExecutionTime = 177.507 s  ClockTime = 180 s

scalarTransport write:
DILUPBiCGStab:  Solving for C, Initial residual = 2.49018e-06, Final residual = 7.76927e-07, No Iterations 6

mixingQuality = 0.475455
Time = 3.24s

ExecutionTime = 177.646 s  ClockTime = 180 s

scalarTransport write:
DILUPBiCGStab:  Solving for C, Initial residual = 2.32338e-06, Final residual = 5.48855e-07, No Iterations 6

mixingQuality = 0.475456
Time = 3.25s

ExecutionTime = 177.785 s  ClockTime = 180 s

scalarTransport write:
DILUPBiCGStab:  Solving for C, Initial residual = 2.13052e-06, Final residual = 8.49843e-07, No Iterations 3

mixingQuality = 0.475457
Time = 3.26s

ExecutionTime = 177.886 s  ClockTime = 180 s

scalarTransport write:
DILUPBiCGStab:  Solving for C, Initial residual = 2.06054e-06, Final residual = 6.834e-07, No Iterations 6

mixingQuality = 0.475457
Time = 3.27s

ExecutionTime = 178.025 s  ClockTime = 180 s

scalarTransport write:
DILUPBiCGStab:  Solving for C, Initial residual = 1.95488e-06, Final residual = 8.50495e-07, No Iterations 3

mixingQuality = 0.475458
Time = 3.28s

ExecutionTime = 178.117 s  ClockTime = 181 s

scalarTransport write:
DILUPBiCGStab:  Solving for C, Initial residual = 1.9139e-06, Final residual = 9.55236e-07, No Iterations 3

mixingQuality = 0.475458
Time = 3.29s

ExecutionTime = 178.217 s  ClockTime = 181 s

scalarTransport write:
DILUPBiCGStab:  Solving for C, Initial residual = 1.73948e-06, Final residual = 9.65028e-07, No Iterations 3

mixingQuality = 0.475459
Time = 3.3s

ExecutionTime = 178.31 s  ClockTime = 181 s

scalarTransport write:
DILUPBiCGStab:  Solving for C, Initial residual = 1.75282e-06, Final residual = 8.74391e-07, No Iterations 3

mixingQuality = 0.475459
Time = 3.31s

ExecutionTime = 178.402 s  ClockTime = 181 s

scalarTransport write:
DILUPBiCGStab:  Solving for C, Initial residual = 1.63115e-06, Final residual = 9.88469e-07, No Iterations 2

mixingQuality = 0.47546
Time = 3.32s

ExecutionTime = 178.486 s  ClockTime = 181 s

scalarTransport write:
DILUPBiCGStab:  Solving for C, Initial residual = 1.70122e-06, Final residual = 4.18085e-07, No Iterations 6

mixingQuality = 0.47546
Time = 3.33s

ExecutionTime = 178.626 s  ClockTime = 181 s

scalarTransport write:
DILUPBiCGStab:  Solving for C, Initial residual = 1.379e-06, Final residual = 8.96842e-07, No Iterations 2

mixingQuality = 0.475461
Time = 3.34s

ExecutionTime = 178.71 s  ClockTime = 181 s

scalarTransport write:
DILUPBiCGStab:  Solving for C, Initial residual = 1.46625e-06, Final residual = 8.95906e-07, No Iterations 3

mixingQuality = 0.475461
Time = 3.35s

ExecutionTime = 178.802 s  ClockTime = 181 s

scalarTransport write:
DILUPBiCGStab:  Solving for C, Initial residual = 1.35663e-06, Final residual = 9.53237e-07, No Iterations 2

mixingQuality = 0.475461
Time = 3.36s

ExecutionTime = 178.887 s  ClockTime = 181 s

scalarTransport write:
DILUPBiCGStab:  Solving for C, Initial residual = 1.33329e-06, Final residual = 8.27232e-07, No Iterations 3

mixingQuality = 0.475461
Time = 3.37s

ExecutionTime = 178.98 s  ClockTime = 181 s

scalarTransport write:
DILUPBiCGStab:  Solving for C, Initial residual = 1.27988e-06, Final residual = 9.79259e-07, No Iterations 2

mixingQuality = 0.475461
Time = 3.38s

ExecutionTime = 179.057 s  ClockTime = 181 s

scalarTransport write:
DILUPBiCGStab:  Solving for C, Initial residual = 1.30732e-06, Final residual = 7.9131e-07, No Iterations 3

mixingQuality = 0.475462
Time = 3.39s

ExecutionTime = 179.153 s  ClockTime = 182 s

scalarTransport write:
DILUPBiCGStab:  Solving for C, Initial residual = 1.18936e-06, Final residual = 9.4407e-07, No Iterations 2

mixingQuality = 0.475462
Time = 3.4s

ExecutionTime = 179.229 s  ClockTime = 182 s

scalarTransport write:
DILUPBiCGStab:  Solving for C, Initial residual = 1.28821e-06, Final residual = 7.57901e-07, No Iterations 3

mixingQuality = 0.475462
Time = 3.41s

ExecutionTime = 179.322 s  ClockTime = 182 s

scalarTransport write:
DILUPBiCGStab:  Solving for C, Initial residual = 1.12809e-06, Final residual = 8.92726e-07, No Iterations 2

mixingQuality = 0.475462
Time = 3.42s

ExecutionTime = 179.399 s  ClockTime = 182 s

scalarTransport write:
DILUPBiCGStab:  Solving for C, Initial residual = 1.27064e-06, Final residual = 8.34556e-07, No Iterations 2

mixingQuality = 0.475462
Time = 3.43s

ExecutionTime = 179.483 s  ClockTime = 182 s

scalarTransport write:
DILUPBiCGStab:  Solving for C, Initial residual = 1.11411e-06, Final residual = 9.52088e-07, No Iterations 2

mixingQuality = 0.475463
Time = 3.44s

ExecutionTime = 179.568 s  ClockTime = 182 s

scalarTransport write:
DILUPBiCGStab:  Solving for C, Initial residual = 1.22362e-06, Final residual = 8.43315e-07, No Iterations 2

mixingQuality = 0.475463
Time = 3.45s

ExecutionTime = 179.652 s  ClockTime = 182 s

scalarTransport write:
DILUPBiCGStab:  Solving for C, Initial residual = 1.12705e-06, Final residual = 8.83355e-07, No Iterations 2

mixingQuality = 0.475463
Time = 3.46s

ExecutionTime = 179.729 s  ClockTime = 182 s

scalarTransport write:
DILUPBiCGStab:  Solving for C, Initial residual = 1.12938e-06, Final residual = 8.82361e-07, No Iterations 2

mixingQuality = 0.475463
Time = 3.47s

ExecutionTime = 179.806 s  ClockTime = 182 s

scalarTransport write:
DILUPBiCGStab:  Solving for C, Initial residual = 1.08781e-06, Final residual = 8.75439e-07, No Iterations 2

mixingQuality = 0.475463
Time = 3.48s

ExecutionTime = 179.883 s  ClockTime = 182 s

scalarTransport write:
DILUPBiCGStab:  Solving for C, Initial residual = 1.09489e-06, Final residual = 6.47946e-07, No Iterations 3

mixingQuality = 0.475463
Time = 3.49s

ExecutionTime = 179.976 s  ClockTime = 182 s

scalarTransport write:
DILUPBiCGStab:  Solving for C, Initial residual = 9.14523e-07, Final residual = 9.14523e-07, No Iterations 0

mixingQuality = 0.475463
Time = 3.5s

ExecutionTime = 180.025 s  ClockTime = 182 s

scalarTransport write:
DILUPBiCGStab:  Solving for C, Initial residual = 9.14523e-07, Final residual = 9.14523e-07, No Iterations 0

mixingQuality = 0.475463
Time = 3.51s

ExecutionTime = 180.074 s  ClockTime = 182 s

scalarTransport write:
DILUPBiCGStab:  Solving for C, Initial residual = 9.14523e-07, Final residual = 9.14523e-07, No Iterations 0

mixingQuality = 0.475463
Time = 3.52s

ExecutionTime = 180.123 s  ClockTime = 183 s

scalarTransport write:
DILUPBiCGStab:  Solving for C, Initial residual = 9.14523e-07, Final residual = 9.14523e-07, No Iterations 0

mixingQuality = 0.475463
Time = 3.53s

ExecutionTime = 180.172 s  ClockTime = 183 s

scalarTransport write:
DILUPBiCGStab:  Solving for C, Initial residual = 9.14523e-07, Final residual = 9.14523e-07, No Iterations 0

mixingQuality = 0.475463
Time = 3.54s

ExecutionTime = 180.221 s  ClockTime = 183 s

scalarTransport write:
DILUPBiCGStab:  Solving for C, Initial residual = 9.14523e-07, Final residual = 9.14523e-07, No Iterations 0

mixingQuality = 0.475463
Time = 3.55s

ExecutionTime = 180.27 s  ClockTime = 183 s

scalarTransport write:
[...]

scalarTransport write:
DILUPBiCGStab:  Solving for C, Initial residual = 9.14523e-07, Final residual = 9.14523e-07, No Iterations 0

mixingQuality = 0.475463
Time = 4.1s

ExecutionTime = 182.985 s  ClockTime = 185 s

scalarTransport write:
DILUPBiCGStab:  Solving for C, Initial residual = 9.14523e-07, Final residual = 9.14523e-07, No Iterations 0

mixingQuality = 0.475463
Time = 4.11s

ExecutionTime = 183.035 s  ClockTime = 185 s

scalarTransport write:
DILUPBiCGStab:  Solving for C, Initial residual = 9.14523e-07, Final residual = 9.14523e-07, No Iterations 0

mixingQuality = 0.475463
Time = 4.12s

ExecutionTime = 183.084 s  ClockTime = 186 s

scalarTransport write:
DILUPBiCGStab:  Solving for C, Initial residual = 9.14523e-07, Final residual = 9.14523e-07, No Iterations 0

mixingQuality = 0.475463
Time = 4.13s

ExecutionTime = 183.133 s  ClockTime = 186 s

scalarTransport write:
DILUPBiCGStab:  Solving for C, Initial residual = 9.14523e-07, Final residual = 9.14523e-07, No Iterations 0

mixingQuality = 0.475463
Time = 4.14s

ExecutionTime = 183.182 s  ClockTime = 186 s

scalarTransport write:
DILUPBiCGStab:  Solving for C, Initial residual = 9.14523e-07, Final residual = 9.14523e-07, No Iterations 0

mixingQuality = 0.475463
Time = 4.15s

ExecutionTime = 183.232 s  ClockTime = 186 s

scalarTransport write:
DILUPBiCGStab:  Solving for C, Initial residual = 9.14523e-07, Final residual = 9.14523e-07, No Iterations 0

mixingQuality = 0.475463
Time = 4.16s

ExecutionTime = 183.281 s  ClockTime = 186 s

scalarTransport write:
DILUPBiCGStab:  Solving for C, Initial residual = 9.14523e-07, Final residual = 9.14523e-07, No Iterations 0

mixingQuality = 0.475463
Time = 4.17s

ExecutionTime = 183.33 s  ClockTime = 186 s

scalarTransport write:
DILUPBiCGStab:  Solving for C, Initial residual = 9.14523e-07, Final residual = 9.14523e-07, No Iterations 0

mixingQuality = 0.475463
Time = 4.18s

ExecutionTime = 183.38 s  ClockTime = 186 s

scalarTransport write:
DILUPBiCGStab:  Solving for C, Initial residual = 9.14523e-07, Final residual = 9.14523e-07, No Iterations 0

mixingQuality = 0.475463
Time = 4.19s

ExecutionTime = 183.429 s  ClockTime = 186 s

scalarTransport write:
DILUPBiCGStab:  Solving for C, Initial residual = 9.14523e-07, Final residual = 9.14523e-07, No Iterations 0

mixingQuality = 0.475463
Time = 4.2s

ExecutionTime = 183.478 s  ClockTime = 186 s

scalarTransport write:
DILUPBiCGStab:  Solving for C, Initial residual = 9.14523e-07, Final residual = 9.14523e-07, No Iterations 0

mixingQuality = 0.475463
Time = 4.21s

ExecutionTime = 183.528 s  ClockTime = 186 s

scalarTransport write:
DILUPBiCGStab:  Solving for C, Initial residual = 9.14523e-07, Final residual = 9.14523e-07, No Iterations 0

mixingQuality = 0.475463
Time = 4.22s

ExecutionTime = 183.577 s  ClockTime = 186 s

scalarTransport write:
DILUPBiCGStab:  Solving for C, Initial residual = 9.14523e-07, Final residual = 9.14523e-07, No Iterations 0

mixingQuality = 0.475463
Time = 4.23s

ExecutionTime = 183.626 s  ClockTime = 186 s

scalarTransport write:
DILUPBiCGStab:  Solving for C, Initial residual = 9.14523e-07, Final residual = 9.14523e-07, No Iterations 0

mixingQuality = 0.475463
Time = 4.24s

ExecutionTime = 183.676 s  ClockTime = 186 s

scalarTransport write:
DILUPBiCGStab:  Solving for C, Initial residual = 9.14523e-07, Final residual = 9.14523e-07, No Iterations 0

mixingQuality = 0.475463
Time = 4.25s

ExecutionTime = 183.725 s  ClockTime = 186 s

scalarTransport write:
DILUPBiCGStab:  Solving for C, Initial residual = 9.14523e-07, Final residual = 9.14523e-07, No Iterations 0

mixingQuality = 0.475463
Time = 4.26s

ExecutionTime = 183.774 s  ClockTime = 186 s

scalarTransport write:
DILUPBiCGStab:  Solving for C, Initial residual = 9.14523e-07, Final residual = 9.14523e-07, No Iterations 0

mixingQuality = 0.475463
Time = 4.27s

ExecutionTime = 183.823 s  ClockTime = 186 s

scalarTransport write:
DILUPBiCGStab:  Solving for C, Initial residual = 9.14523e-07, Final residual = 9.14523e-07, No Iterations 0

mixingQuality = 0.475463
Time = 4.28s

ExecutionTime = 183.872 s  ClockTime = 186 s

scalarTransport write:
DILUPBiCGStab:  Solving for C, Initial residual = 9.14523e-07, Final residual = 9.14523e-07, No Iterations 0

mixingQuality = 0.475463
Time = 4.29s

ExecutionTime = 183.922 s  ClockTime = 186 s

scalarTransport write:
DILUPBiCGStab:  Solving for C, Initial residual = 9.14523e-07, Final residual = 9.14523e-07, No Iterations 0

mixingQuality = 0.475463
Time = 4.3s

ExecutionTime = 183.971 s  ClockTime = 186 s

scalarTransport write:
DILUPBiCGStab:  Solving for C, Initial residual = 9.14523e-07, Final residual = 9.14523e-07, No Iterations 0

mixingQuality = 0.475463
Time = 4.31s

ExecutionTime = 184.02 s  ClockTime = 186 s

scalarTransport write:
DILUPBiCGStab:  Solving for C, Initial residual = 9.14523e-07, Final residual = 9.14523e-07, No Iterations 0

mixingQuality = 0.475463
Time = 4.32s

ExecutionTime = 184.07 s  ClockTime = 187 s

scalarTransport write:
DILUPBiCGStab:  Solving for C, Initial residual = 9.14523e-07, Final residual = 9.14523e-07, No Iterations 0

mixingQuality = 0.475463
Time = 4.33s

ExecutionTime = 184.119 s  ClockTime = 187 s

scalarTransport write:
DILUPBiCGStab:  Solving for C, Initial residual = 9.14523e-07, Final residual = 9.14523e-07, No Iterations 0

mixingQuality = 0.475463
Time = 4.34s

ExecutionTime = 184.168 s  ClockTime = 187 s

scalarTransport write:
DILUPBiCGStab:  Solving for C, Initial residual = 9.14523e-07, Final residual = 9.14523e-07, No Iterations 0

mixingQuality = 0.475463
Time = 4.35s

ExecutionTime = 184.217 s  ClockTime = 187 s

scalarTransport write:
DILUPBiCGStab:  Solving for C, Initial residual = 9.14523e-07, Final residual = 9.14523e-07, No Iterations 0

mixingQuality = 0.475463
Time = 4.36s

ExecutionTime = 184.266 s  ClockTime = 187 s

scalarTransport write:
DILUPBiCGStab:  Solving for C, Initial residual = 9.14523e-07, Final residual = 9.14523e-07, No Iterations 0

mixingQuality = 0.475463
Time = 4.37s

ExecutionTime = 184.315 s  ClockTime = 187 s

scalarTransport write:
DILUPBiCGStab:  Solving for C, Initial residual = 9.14523e-07, Final residual = 9.14523e-07, No Iterations 0

mixingQuality = 0.475463
Time = 4.38s

ExecutionTime = 184.365 s  ClockTime = 187 s

scalarTransport write:
DILUPBiCGStab:  Solving for C, Initial residual = 9.14523e-07, Final residual = 9.14523e-07, No Iterations 0

mixingQuality = 0.475463
Time = 4.39s

ExecutionTime = 184.414 s  ClockTime = 187 s

scalarTransport write:
DILUPBiCGStab:  Solving for C, Initial residual = 9.14523e-07, Final residual = 9.14523e-07, No Iterations 0

mixingQuality = 0.475463
Time = 4.4s

ExecutionTime = 184.463 s  ClockTime = 187 s

scalarTransport write:
DILUPBiCGStab:  Solving for C, Initial residual = 9.14523e-07, Final residual = 9.14523e-07, No Iterations 0

mixingQuality = 0.475463
Time = 4.41s

ExecutionTime = 184.512 s  ClockTime = 187 s

scalarTransport write:
DILUPBiCGStab:  Solving for C, Initial residual = 9.14523e-07, Final residual = 9.14523e-07, No Iterations 0

mixingQuality = 0.475463
Time = 4.42s

ExecutionTime = 184.561 s  ClockTime = 187 s

scalarTransport write:
DILUPBiCGStab:  Solving for C, Initial residual = 9.14523e-07, Final residual = 9.14523e-07, No Iterations 0

mixingQuality = 0.475463
Time = 4.43s

ExecutionTime = 184.61 s  ClockTime = 187 s

scalarTransport write:
DILUPBiCGStab:  Solving for C, Initial residual = 9.14523e-07, Final residual = 9.14523e-07, No Iterations 0

mixingQuality = 0.475463
Time = 4.44s

ExecutionTime = 184.66 s  ClockTime = 187 s

scalarTransport write:
DILUPBiCGStab:  Solving for C, Initial residual = 9.14523e-07, Final residual = 9.14523e-07, No Iterations 0

mixingQuality = 0.475463
Time = 4.45s

ExecutionTime = 184.71 s  ClockTime = 187 s

scalarTransport write:
DILUPBiCGStab:  Solving for C, Initial residual = 9.14523e-07, Final residual = 9.14523e-07, No Iterations 0

mixingQuality = 0.475463
Time = 4.46s

ExecutionTime = 184.762 s  ClockTime = 187 s

scalarTransport write:
DILUPBiCGStab:  Solving for C, Initial residual = 9.14523e-07, Final residual = 9.14523e-07, No Iterations 0

mixingQuality = 0.475463
Time = 4.47s

ExecutionTime = 184.811 s  ClockTime = 187 s

scalarTransport write:
DILUPBiCGStab:  Solving for C, Initial residual = 9.14523e-07, Final residual = 9.14523e-07, No Iterations 0

mixingQuality = 0.475463
Time = 4.48s

ExecutionTime = 184.86 s  ClockTime = 187 s

scalarTransport write:
DILUPBiCGStab:  Solving for C, Initial residual = 9.14523e-07, Final residual = 9.14523e-07, No Iterations 0

mixingQuality = 0.475463
Time = 4.49s

ExecutionTime = 184.909 s  ClockTime = 187 s

scalarTransport write:
DILUPBiCGStab:  Solving for C, Initial residual = 9.14523e-07, Final residual = 9.14523e-07, No Iterations 0

mixingQuality = 0.475463
Time = 4.5s

ExecutionTime = 184.959 s  ClockTime = 187 s

scalarTransport write:
DILUPBiCGStab:  Solving for C, Initial residual = 9.14523e-07, Final residual = 9.14523e-07, No Iterations 0

mixingQuality = 0.475463
Time = 4.51s

ExecutionTime = 185.008 s  ClockTime = 187 s

scalarTransport write:
DILUPBiCGStab:  Solving for C, Initial residual = 9.14523e-07, Final residual = 9.14523e-07, No Iterations 0

mixingQuality = 0.475463
Time = 4.52s

ExecutionTime = 185.057 s  ClockTime = 187 s

scalarTransport write:
DILUPBiCGStab:  Solving for C, Initial residual = 9.14523e-07, Final residual = 9.14523e-07, No Iterations 0

mixingQuality = 0.475463
Time = 4.53s

ExecutionTime = 185.106 s  ClockTime = 188 s

scalarTransport write:
DILUPBiCGStab:  Solving for C, Initial residual = 9.14523e-07, Final residual = 9.14523e-07, No Iterations 0

mixingQuality = 0.475463
Time = 4.54s

ExecutionTime = 185.156 s  ClockTime = 188 s

scalarTransport write:
DILUPBiCGStab:  Solving for C, Initial residual = 9.14523e-07, Final residual = 9.14523e-07, No Iterations 0

mixingQuality = 0.475463
Time = 4.55s

ExecutionTime = 185.205 s  ClockTime = 188 s

scalarTransport write:
DILUPBiCGStab:  Solving for C, Initial residual = 9.14523e-07, Final residual = 9.14523e-07, No Iterations 0

mixingQuality = 0.475463
Time = 4.56s

ExecutionTime = 185.254 s  ClockTime = 188 s

scalarTransport write:
DILUPBiCGStab:  Solving for C, Initial residual = 9.14523e-07, Final residual = 9.14523e-07, No Iterations 0

mixingQuality = 0.475463
Time = 4.57s

ExecutionTime = 185.303 s  ClockTime = 188 s

scalarTransport write:
DILUPBiCGStab:  Solving for C, Initial residual = 9.14523e-07, Final residual = 9.14523e-07, No Iterations 0

mixingQuality = 0.475463
Time = 4.58s

ExecutionTime = 185.353 s  ClockTime = 188 s

scalarTransport write:
DILUPBiCGStab:  Solving for C, Initial residual = 9.14523e-07, Final residual = 9.14523e-07, No Iterations 0

mixingQuality = 0.475463
Time = 4.59s

ExecutionTime = 185.402 s  ClockTime = 188 s

scalarTransport write:
DILUPBiCGStab:  Solving for C, Initial residual = 9.14523e-07, Final residual = 9.14523e-07, No Iterations 0

mixingQuality = 0.475463
Time = 4.6s

ExecutionTime = 185.451 s  ClockTime = 188 s

scalarTransport write:
DILUPBiCGStab:  Solving for C, Initial residual = 9.14523e-07, Final residual = 9.14523e-07, No Iterations 0

mixingQuality = 0.475463
Time = 4.61s

ExecutionTime = 185.5 s  ClockTime = 188 s

scalarTransport write:
DILUPBiCGStab:  Solving for C, Initial residual = 9.14523e-07, Final residual = 9.14523e-07, No Iterations 0

mixingQuality = 0.475463
Time = 4.62s

ExecutionTime = 185.55 s  ClockTime = 188 s

scalarTransport write:
DILUPBiCGStab:  Solving for C, Initial residual = 9.14523e-07, Final residual = 9.14523e-07, No Iterations 0

mixingQuality = 0.475463
Time = 4.63s

ExecutionTime = 185.599 s  ClockTime = 188 s

scalarTransport write:
DILUPBiCGStab:  Solving for C, Initial residual = 9.14523e-07, Final residual = 9.14523e-07, No Iterations 0

mixingQuality = 0.475463
Time = 4.64s

ExecutionTime = 185.648 s  ClockTime = 188 s

scalarTransport write:
DILUPBiCGStab:  Solving for C, Initial residual = 9.14523e-07, Final residual = 9.14523e-07, No Iterations 0

mixingQuality = 0.475463
Time = 4.65s

ExecutionTime = 185.697 s  ClockTime = 188 s

scalarTransport write:
DILUPBiCGStab:  Solving for C, Initial residual = 9.14523e-07, Final residual = 9.14523e-07, No Iterations 0

mixingQuality = 0.475463
Time = 4.66s

ExecutionTime = 185.746 s  ClockTime = 188 s

scalarTransport write:
DILUPBiCGStab:  Solving for C, Initial residual = 9.14523e-07, Final residual = 9.14523e-07, No Iterations 0

mixingQuality = 0.475463
Time = 4.67s

ExecutionTime = 185.796 s  ClockTime = 188 s

scalarTransport write:
DILUPBiCGStab:  Solving for C, Initial residual = 9.14523e-07, Final residual = 9.14523e-07, No Iterations 0

mixingQuality = 0.475463
Time = 4.68s

ExecutionTime = 185.845 s  ClockTime = 188 s

scalarTransport write:
DILUPBiCGStab:  Solving for C, Initial residual = 9.14523e-07, Final residual = 9.14523e-07, No Iterations 0

mixingQuality = 0.475463
Time = 4.69s

ExecutionTime = 185.895 s  ClockTime = 188 s

scalarTransport write:
DILUPBiCGStab:  Solving for C, Initial residual = 9.14523e-07, Final residual = 9.14523e-07, No Iterations 0

mixingQuality = 0.475463
Time = 4.7s

ExecutionTime = 185.944 s  ClockTime = 188 s

scalarTransport write:
DILUPBiCGStab:  Solving for C, Initial residual = 9.14523e-07, Final residual = 9.14523e-07, No Iterations 0

mixingQuality = 0.475463
Time = 4.71s

ExecutionTime = 185.993 s  ClockTime = 188 s

scalarTransport write:
DILUPBiCGStab:  Solving for C, Initial residual = 9.14523e-07, Final residual = 9.14523e-07, No Iterations 0

mixingQuality = 0.475463
Time = 4.72s

ExecutionTime = 186.042 s  ClockTime = 188 s

scalarTransport write:
DILUPBiCGStab:  Solving for C, Initial residual = 9.14523e-07, Final residual = 9.14523e-07, No Iterations 0

mixingQuality = 0.475463
Time = 4.73s

ExecutionTime = 186.091 s  ClockTime = 189 s

scalarTransport write:
DILUPBiCGStab:  Solving for C, Initial residual = 9.14523e-07, Final residual = 9.14523e-07, No Iterations 0

mixingQuality = 0.475463
Time = 4.74s

ExecutionTime = 186.141 s  ClockTime = 189 s

scalarTransport write:
DILUPBiCGStab:  Solving for C, Initial residual = 9.14523e-07, Final residual = 9.14523e-07, No Iterations 0

mixingQuality = 0.475463
Time = 4.75s

ExecutionTime = 186.19 s  ClockTime = 189 s

scalarTransport write:
DILUPBiCGStab:  Solving for C, Initial residual = 9.14523e-07, Final residual = 9.14523e-07, No Iterations 0

mixingQuality = 0.475463
Time = 4.76s

ExecutionTime = 186.239 s  ClockTime = 189 s

scalarTransport write:
DILUPBiCGStab:  Solving for C, Initial residual = 9.14523e-07, Final residual = 9.14523e-07, No Iterations 0

mixingQuality = 0.475463
Time = 4.77s

ExecutionTime = 186.289 s  ClockTime = 189 s

scalarTransport write:
DILUPBiCGStab:  Solving for C, Initial residual = 9.14523e-07, Final residual = 9.14523e-07, No Iterations 0

mixingQuality = 0.475463
Time = 4.78s

ExecutionTime = 186.339 s  ClockTime = 189 s

scalarTransport write:
DILUPBiCGStab:  Solving for C, Initial residual = 9.14523e-07, Final residual = 9.14523e-07, No Iterations 0

mixingQuality = 0.475463
Time = 4.79s

ExecutionTime = 186.388 s  ClockTime = 189 s

scalarTransport write:
DILUPBiCGStab:  Solving for C, Initial residual = 9.14523e-07, Final residual = 9.14523e-07, No Iterations 0

mixingQuality = 0.475463
Time = 4.8s

ExecutionTime = 186.437 s  ClockTime = 189 s

scalarTransport write:
DILUPBiCGStab:  Solving for C, Initial residual = 9.14523e-07, Final residual = 9.14523e-07, No Iterations 0

mixingQuality = 0.475463
Time = 4.81s

ExecutionTime = 186.487 s  ClockTime = 189 s

scalarTransport write:
DILUPBiCGStab:  Solving for C, Initial residual = 9.14523e-07, Final residual = 9.14523e-07, No Iterations 0

mixingQuality = 0.475463
Time = 4.82s

ExecutionTime = 186.536 s  ClockTime = 189 s

scalarTransport write:
DILUPBiCGStab:  Solving for C, Initial residual = 9.14523e-07, Final residual = 9.14523e-07, No Iterations 0

mixingQuality = 0.475463
Time = 4.83s

ExecutionTime = 186.586 s  ClockTime = 189 s

scalarTransport write:
DILUPBiCGStab:  Solving for C, Initial residual = 9.14523e-07, Final residual = 9.14523e-07, No Iterations 0

mixingQuality = 0.475463
Time = 4.84s

ExecutionTime = 186.635 s  ClockTime = 189 s

scalarTransport write:
DILUPBiCGStab:  Solving for C, Initial residual = 9.14523e-07, Final residual = 9.14523e-07, No Iterations 0

mixingQuality = 0.475463
Time = 4.85s

ExecutionTime = 186.684 s  ClockTime = 189 s

scalarTransport write:
DILUPBiCGStab:  Solving for C, Initial residual = 9.14523e-07, Final residual = 9.14523e-07, No Iterations 0

mixingQuality = 0.475463
Time = 4.86s

ExecutionTime = 186.733 s  ClockTime = 189 s

scalarTransport write:
DILUPBiCGStab:  Solving for C, Initial residual = 9.14523e-07, Final residual = 9.14523e-07, No Iterations 0

mixingQuality = 0.475463
Time = 4.87s

ExecutionTime = 186.782 s  ClockTime = 189 s

scalarTransport write:
DILUPBiCGStab:  Solving for C, Initial residual = 9.14523e-07, Final residual = 9.14523e-07, No Iterations 0

mixingQuality = 0.475463
Time = 4.88s

ExecutionTime = 186.832 s  ClockTime = 189 s

scalarTransport write:
DILUPBiCGStab:  Solving for C, Initial residual = 9.14523e-07, Final residual = 9.14523e-07, No Iterations 0

mixingQuality = 0.475463
Time = 4.89s

ExecutionTime = 186.881 s  ClockTime = 189 s

scalarTransport write:
DILUPBiCGStab:  Solving for C, Initial residual = 9.14523e-07, Final residual = 9.14523e-07, No Iterations 0

mixingQuality = 0.475463
Time = 4.9s

ExecutionTime = 186.93 s  ClockTime = 189 s

scalarTransport write:
DILUPBiCGStab:  Solving for C, Initial residual = 9.14523e-07, Final residual = 9.14523e-07, No Iterations 0

mixingQuality = 0.475463
Time = 4.91s

ExecutionTime = 186.979 s  ClockTime = 189 s

scalarTransport write:
DILUPBiCGStab:  Solving for C, Initial residual = 9.14523e-07, Final residual = 9.14523e-07, No Iterations 0

mixingQuality = 0.475463
Time = 4.92s

ExecutionTime = 187.028 s  ClockTime = 189 s

scalarTransport write:
DILUPBiCGStab:  Solving for C, Initial residual = 9.14523e-07, Final residual = 9.14523e-07, No Iterations 0

mixingQuality = 0.475463
Time = 4.93s

ExecutionTime = 187.078 s  ClockTime = 190 s

scalarTransport write:
DILUPBiCGStab:  Solving for C, Initial residual = 9.14523e-07, Final residual = 9.14523e-07, No Iterations 0

mixingQuality = 0.475463
Time = 4.94s

ExecutionTime = 187.127 s  ClockTime = 190 s

scalarTransport write:
DILUPBiCGStab:  Solving for C, Initial residual = 9.14523e-07, Final residual = 9.14523e-07, No Iterations 0

mixingQuality = 0.475463
Time = 4.95s

ExecutionTime = 187.176 s  ClockTime = 190 s

scalarTransport write:
DILUPBiCGStab:  Solving for C, Initial residual = 9.14523e-07, Final residual = 9.14523e-07, No Iterations 0

mixingQuality = 0.475463
Time = 4.96s

ExecutionTime = 187.225 s  ClockTime = 190 s

scalarTransport write:
DILUPBiCGStab:  Solving for C, Initial residual = 9.14523e-07, Final residual = 9.14523e-07, No Iterations 0

mixingQuality = 0.475463
Time = 4.97s

ExecutionTime = 187.275 s  ClockTime = 190 s

scalarTransport write:
DILUPBiCGStab:  Solving for C, Initial residual = 9.14523e-07, Final residual = 9.14523e-07, No Iterations 0

mixingQuality = 0.475463
Time = 4.98s

ExecutionTime = 187.324 s  ClockTime = 190 s

scalarTransport write:
DILUPBiCGStab:  Solving for C, Initial residual = 9.14523e-07, Final residual = 9.14523e-07, No Iterations 0

mixingQuality = 0.475463
Time = 4.99s

ExecutionTime = 187.373 s  ClockTime = 190 s

scalarTransport write:
DILUPBiCGStab:  Solving for C, Initial residual = 9.14523e-07, Final residual = 9.14523e-07, No Iterations 0

mixingQuality = 0.475463
Time = 5s

ExecutionTime = 187.547 s  ClockTime = 190 s

scalarTransport write:
DILUPBiCGStab:  Solving for C, Initial residual = 9.14523e-07, Final residual = 9.14523e-07, No Iterations 0

mixingQuality = 0.475463
End

