nohup: ignoring input
/*---------------------------------------------------------------------------*\
  =========                 |
  \\      /  F ield         | OpenFOAM: The Open Source CFD Toolbox
   \\    /   O peration     | Website:  https://openfoam.org
    \\  /    A nd           | Version:  11
     \\/     M anipulation  |
\*---------------------------------------------------------------------------*/
Build  : 11-c219200fdb8b
Exec   : foamRun
Date   : May 27 2024
Time   : 09:18:17
Host   : "cda-server-4"
PID    : 76223
I/O    : uncollated
Case   : /home/takken/mmft-CFD-cases/DiffusiveMixing/Xi-mixer/D9.0/concentrationField
nProcs : 1
sigFpe : Enabling floating point exception trapping (FOAM_SIGFPE).
fileModificationChecking : Monitoring run-time modified files using timeStampMaster (fileModificationSkew 10)
allowSystemOperations : Allowing user-supplied system call operations

// * * * * * * * * * * * * * * * * * * * * * * * * * * * * * * * * * * * * * //
Create time

Create mesh for time = 0

Selecting solver functions
Selecting solver incompressibleFluid
Selecting viscosity model constant
Selecting turbulence model type laminar
Selecting laminar stress model Stokes
No MRF models present

Courant Number mean: 58.2803 max: 358.291

PIMPLE: No convergence criteria found


PIMPLE: Operating solver in transient mode with 1 outer corrector
PIMPLE: Operating solver in PISO mode



Starting time loop

Using dynamicCode for coded mixingQualityCheck at line 59 in "/home/takken/mmft-CFD-cases/DiffusiveMixing/Xi-mixer/D9.0/concentrationField/system/controlDict/functions/mixingQualityCheck"
scalarTransport write:
DILUPBiCGStab:  Solving for C, Initial residual = 1, Final residual = 9.43867e-07, No Iterations 24

mixingQuality = 0.00901388
Time = 0.01s

ExecutionTime = 2.45446 s  ClockTime = 3 s

scalarTransport write:
DILUPBiCGStab:  Solving for C, Initial residual = 0.397492, Final residual = 8.89046e-07, No Iterations 23

mixingQuality = 0.0229142
Time = 0.02s

ExecutionTime = 2.79453 s  ClockTime = 3 s

scalarTransport write:
DILUPBiCGStab:  Solving for C, Initial residual = 0.188421, Final residual = 9.81398e-07, No Iterations 21

mixingQuality = 0.0381274
Time = 0.03s

ExecutionTime = 3.10828 s  ClockTime = 3 s

scalarTransport write:
DILUPBiCGStab:  Solving for C, Initial residual = 0.108446, Final residual = 8.44341e-07, No Iterations 20

mixingQuality = 0.0524426
Time = 0.04s

ExecutionTime = 3.40856 s  ClockTime = 4 s

scalarTransport write:
DILUPBiCGStab:  Solving for C, Initial residual = 0.0790723, Final residual = 9.56519e-07, No Iterations 20

mixingQuality = 0.0658982
Time = 0.05s

ExecutionTime = 3.71588 s  ClockTime = 4 s

scalarTransport write:
DILUPBiCGStab:  Solving for C, Initial residual = 0.0629792, Final residual = 8.25112e-07, No Iterations 23

mixingQuality = 0.0793029
Time = 0.06s

ExecutionTime = 4.06298 s  ClockTime = 4 s

scalarTransport write:
DILUPBiCGStab:  Solving for C, Initial residual = 0.053428, Final residual = 9.24706e-07, No Iterations 22

mixingQuality = 0.0927233
Time = 0.07s

ExecutionTime = 4.39694 s  ClockTime = 5 s

scalarTransport write:
DILUPBiCGStab:  Solving for C, Initial residual = 0.0467869, Final residual = 8.59571e-07, No Iterations 23

mixingQuality = 0.106145
Time = 0.08s

ExecutionTime = 4.74364 s  ClockTime = 5 s

scalarTransport write:
DILUPBiCGStab:  Solving for C, Initial residual = 0.0419312, Final residual = 9.87006e-07, No Iterations 24

mixingQuality = 0.11955
Time = 0.09s

ExecutionTime = 5.09705 s  ClockTime = 5 s

scalarTransport write:
DILUPBiCGStab:  Solving for C, Initial residual = 0.0381944, Final residual = 8.21415e-07, No Iterations 25

mixingQuality = 0.132931
Time = 0.1s

ExecutionTime = 5.46386 s  ClockTime = 6 s

scalarTransport write:
DILUPBiCGStab:  Solving for C, Initial residual = 0.0352337, Final residual = 8.70443e-07, No Iterations 25

mixingQuality = 0.146291
Time = 0.11s

ExecutionTime = 5.83744 s  ClockTime = 6 s

scalarTransport write:
DILUPBiCGStab:  Solving for C, Initial residual = 0.0328233, Final residual = 4.53381e-07, No Iterations 27

mixingQuality = 0.159639
Time = 0.12s

ExecutionTime = 6.23097 s  ClockTime = 6 s

scalarTransport write:
DILUPBiCGStab:  Solving for C, Initial residual = 0.030829, Final residual = 8.15908e-07, No Iterations 27

mixingQuality = 0.172981
Time = 0.13s

ExecutionTime = 6.62481 s  ClockTime = 7 s

scalarTransport write:
DILUPBiCGStab:  Solving for C, Initial residual = 0.0291626, Final residual = 3.12888e-07, No Iterations 29

mixingQuality = 0.186319
Time = 0.14s

ExecutionTime = 7.04561 s  ClockTime = 7 s

scalarTransport write:
DILUPBiCGStab:  Solving for C, Initial residual = 0.0277548, Final residual = 9.82351e-07, No Iterations 25

mixingQuality = 0.199653
Time = 0.15s

ExecutionTime = 7.4197 s  ClockTime = 8 s

scalarTransport write:
DILUPBiCGStab:  Solving for C, Initial residual = 0.0265492, Final residual = 8.71671e-07, No Iterations 30

mixingQuality = 0.212982
Time = 0.16s

ExecutionTime = 7.86019 s  ClockTime = 8 s

scalarTransport write:
DILUPBiCGStab:  Solving for C, Initial residual = 0.0255097, Final residual = 8.94718e-07, No Iterations 24

mixingQuality = 0.226305
Time = 0.17s

ExecutionTime = 8.22018 s  ClockTime = 8 s

scalarTransport write:
DILUPBiCGStab:  Solving for C, Initial residual = 0.0246113, Final residual = 9.58074e-07, No Iterations 24

mixingQuality = 0.239615
Time = 0.18s

ExecutionTime = 8.57383 s  ClockTime = 9 s

scalarTransport write:
DILUPBiCGStab:  Solving for C, Initial residual = 0.0238324, Final residual = 7.99326e-07, No Iterations 24

mixingQuality = 0.252905
Time = 0.19s

ExecutionTime = 8.92825 s  ClockTime = 9 s

scalarTransport write:
DILUPBiCGStab:  Solving for C, Initial residual = 0.023155, Final residual = 8.65872e-07, No Iterations 24

mixingQuality = 0.266164
Time = 0.2s

ExecutionTime = 9.28213 s  ClockTime = 10 s

scalarTransport write:
DILUPBiCGStab:  Solving for C, Initial residual = 0.0225727, Final residual = 8.67342e-07, No Iterations 23

mixingQuality = 0.279376
Time = 0.21s

ExecutionTime = 9.62931 s  ClockTime = 10 s

scalarTransport write:
DILUPBiCGStab:  Solving for C, Initial residual = 0.0220773, Final residual = 9.48305e-07, No Iterations 22

mixingQuality = 0.292521
Time = 0.22s

ExecutionTime = 9.96339 s  ClockTime = 10 s

scalarTransport write:
DILUPBiCGStab:  Solving for C, Initial residual = 0.0216309, Final residual = 8.60962e-07, No Iterations 22

mixingQuality = 0.305575
Time = 0.23s

ExecutionTime = 10.2909 s  ClockTime = 11 s

scalarTransport write:
DILUPBiCGStab:  Solving for C, Initial residual = 0.021203, Final residual = 8.92246e-07, No Iterations 21

mixingQuality = 0.318506
Time = 0.24s

ExecutionTime = 10.6118 s  ClockTime = 11 s

scalarTransport write:
DILUPBiCGStab:  Solving for C, Initial residual = 0.0207766, Final residual = 7.9716e-07, No Iterations 21

mixingQuality = 0.32979
Time = 0.25s

ExecutionTime = 10.9323 s  ClockTime = 11 s

scalarTransport write:
DILUPBiCGStab:  Solving for C, Initial residual = 0.0203392, Final residual = 8.06833e-07, No Iterations 21

mixingQuality = 0.341695
Time = 0.26s

ExecutionTime = 11.2528 s  ClockTime = 11 s

scalarTransport write:
DILUPBiCGStab:  Solving for C, Initial residual = 0.0198832, Final residual = 8.66741e-07, No Iterations 21

mixingQuality = 0.353645
Time = 0.27s

ExecutionTime = 11.5734 s  ClockTime = 12 s

scalarTransport write:
DILUPBiCGStab:  Solving for C, Initial residual = 0.019404, Final residual = 8.91987e-07, No Iterations 21

mixingQuality = 0.365287
Time = 0.28s

ExecutionTime = 11.8941 s  ClockTime = 12 s

scalarTransport write:
DILUPBiCGStab:  Solving for C, Initial residual = 0.0188987, Final residual = 9.19973e-07, No Iterations 21

mixingQuality = 0.376853
Time = 0.29s

ExecutionTime = 12.2144 s  ClockTime = 12 s

scalarTransport write:
DILUPBiCGStab:  Solving for C, Initial residual = 0.0183673, Final residual = 7.92313e-07, No Iterations 23

mixingQuality = 0.388284
Time = 0.3s

ExecutionTime = 12.5613 s  ClockTime = 13 s

scalarTransport write:
DILUPBiCGStab:  Solving for C, Initial residual = 0.0178126, Final residual = 8.72906e-07, No Iterations 23

mixingQuality = 0.399541
Time = 0.31s

ExecutionTime = 12.9019 s  ClockTime = 13 s

scalarTransport write:
DILUPBiCGStab:  Solving for C, Initial residual = 0.0172385, Final residual = 8.08999e-07, No Iterations 23

mixingQuality = 0.410545
Time = 0.32s

ExecutionTime = 13.243 s  ClockTime = 13 s

scalarTransport write:
DILUPBiCGStab:  Solving for C, Initial residual = 0.0166494, Final residual = 9.3416e-07, No Iterations 21

mixingQuality = 0.421217
Time = 0.33s

ExecutionTime = 13.5567 s  ClockTime = 14 s

scalarTransport write:
DILUPBiCGStab:  Solving for C, Initial residual = 0.0160542, Final residual = 9.77802e-07, No Iterations 19

mixingQuality = 0.431542
Time = 0.34s

ExecutionTime = 13.8507 s  ClockTime = 14 s

scalarTransport write:
DILUPBiCGStab:  Solving for C, Initial residual = 0.0154631, Final residual = 9.20613e-07, No Iterations 19

mixingQuality = 0.441496
Time = 0.35s

ExecutionTime = 14.1445 s  ClockTime = 14 s

scalarTransport write:
DILUPBiCGStab:  Solving for C, Initial residual = 0.0148866, Final residual = 8.44065e-07, No Iterations 21

mixingQuality = 0.451067
Time = 0.36s

ExecutionTime = 14.4652 s  ClockTime = 15 s

scalarTransport write:
DILUPBiCGStab:  Solving for C, Initial residual = 0.0143333, Final residual = 4.77028e-07, No Iterations 21

mixingQuality = 0.460255
Time = 0.37s

ExecutionTime = 14.7795 s  ClockTime = 15 s

scalarTransport write:
DILUPBiCGStab:  Solving for C, Initial residual = 0.0138085, Final residual = 9.76257e-07, No Iterations 19

mixingQuality = 0.469077
Time = 0.38s

ExecutionTime = 15.0739 s  ClockTime = 15 s

scalarTransport write:
DILUPBiCGStab:  Solving for C, Initial residual = 0.0133152, Final residual = 9.21424e-07, No Iterations 20

mixingQuality = 0.477547
Time = 0.39s

ExecutionTime = 15.3749 s  ClockTime = 16 s

scalarTransport write:
DILUPBiCGStab:  Solving for C, Initial residual = 0.012854, Final residual = 3.30329e-07, No Iterations 21

mixingQuality = 0.485686
Time = 0.4s

ExecutionTime = 15.6892 s  ClockTime = 16 s

scalarTransport write:
DILUPBiCGStab:  Solving for C, Initial residual = 0.0124246, Final residual = 6.93335e-07, No Iterations 20

mixingQuality = 0.493517
Time = 0.41s

ExecutionTime = 15.9899 s  ClockTime = 16 s

scalarTransport write:
DILUPBiCGStab:  Solving for C, Initial residual = 0.012025, Final residual = 6.58302e-07, No Iterations 20

mixingQuality = 0.501063
Time = 0.42s

ExecutionTime = 16.2907 s  ClockTime = 17 s

scalarTransport write:
DILUPBiCGStab:  Solving for C, Initial residual = 0.0116523, Final residual = 5.88533e-07, No Iterations 20

mixingQuality = 0.508341
Time = 0.43s

ExecutionTime = 16.5912 s  ClockTime = 17 s

scalarTransport write:
DILUPBiCGStab:  Solving for C, Initial residual = 0.0113034, Final residual = 8.16388e-07, No Iterations 18

mixingQuality = 0.515366
Time = 0.44s

ExecutionTime = 16.8717 s  ClockTime = 17 s

scalarTransport write:
DILUPBiCGStab:  Solving for C, Initial residual = 0.0109748, Final residual = 8.93014e-07, No Iterations 18

mixingQuality = 0.522157
Time = 0.45s

ExecutionTime = 17.146 s  ClockTime = 17 s

scalarTransport write:
DILUPBiCGStab:  Solving for C, Initial residual = 0.010663, Final residual = 9.2449e-07, No Iterations 17

mixingQuality = 0.528726
Time = 0.46s

ExecutionTime = 17.4137 s  ClockTime = 18 s

scalarTransport write:
DILUPBiCGStab:  Solving for C, Initial residual = 0.0103647, Final residual = 9.97587e-07, No Iterations 17

mixingQuality = 0.535069
Time = 0.47s

ExecutionTime = 17.6749 s  ClockTime = 18 s

scalarTransport write:
DILUPBiCGStab:  Solving for C, Initial residual = 0.0100772, Final residual = 9.95785e-07, No Iterations 16

mixingQuality = 0.541193
Time = 0.48s

ExecutionTime = 17.9292 s  ClockTime = 18 s

scalarTransport write:
DILUPBiCGStab:  Solving for C, Initial residual = 0.00979774, Final residual = 9.75297e-07, No Iterations 16

mixingQuality = 0.547118
Time = 0.49s

ExecutionTime = 18.1836 s  ClockTime = 18 s

scalarTransport write:
DILUPBiCGStab:  Solving for C, Initial residual = 0.00952393, Final residual = 8.88287e-07, No Iterations 16

mixingQuality = 0.552857
Time = 0.5s

ExecutionTime = 18.4379 s  ClockTime = 19 s

scalarTransport write:
DILUPBiCGStab:  Solving for C, Initial residual = 0.00923712, Final residual = 8.29388e-07, No Iterations 16

mixingQuality = 0.558414
Time = 0.51s

ExecutionTime = 18.6922 s  ClockTime = 19 s

scalarTransport write:
DILUPBiCGStab:  Solving for C, Initial residual = 0.00893937, Final residual = 9.53878e-07, No Iterations 16

mixingQuality = 0.563784
Time = 0.52s

ExecutionTime = 18.94 s  ClockTime = 19 s

scalarTransport write:
DILUPBiCGStab:  Solving for C, Initial residual = 0.00864912, Final residual = 9.39119e-07, No Iterations 16

mixingQuality = 0.568979
Time = 0.53s

ExecutionTime = 19.1877 s  ClockTime = 19 s

scalarTransport write:
DILUPBiCGStab:  Solving for C, Initial residual = 0.00836604, Final residual = 8.14962e-07, No Iterations 16

mixingQuality = 0.574007
Time = 0.54s

ExecutionTime = 19.4352 s  ClockTime = 20 s

scalarTransport write:
DILUPBiCGStab:  Solving for C, Initial residual = 0.00808984, Final residual = 7.5217e-07, No Iterations 16

mixingQuality = 0.578871
Time = 0.55s

ExecutionTime = 19.683 s  ClockTime = 20 s

scalarTransport write:
DILUPBiCGStab:  Solving for C, Initial residual = 0.00782056, Final residual = 7.96546e-07, No Iterations 16

mixingQuality = 0.583562
Time = 0.56s

ExecutionTime = 19.9306 s  ClockTime = 20 s

scalarTransport write:
DILUPBiCGStab:  Solving for C, Initial residual = 0.00755835, Final residual = 6.85442e-07, No Iterations 16

mixingQuality = 0.588099
Time = 0.57s

ExecutionTime = 20.1786 s  ClockTime = 20 s

scalarTransport write:
DILUPBiCGStab:  Solving for C, Initial residual = 0.00730325, Final residual = 7.68661e-07, No Iterations 16

mixingQuality = 0.592485
Time = 0.58s

ExecutionTime = 20.4269 s  ClockTime = 21 s

scalarTransport write:
DILUPBiCGStab:  Solving for C, Initial residual = 0.00705523, Final residual = 6.79872e-07, No Iterations 16

mixingQuality = 0.596723
Time = 0.59s

ExecutionTime = 20.6762 s  ClockTime = 21 s

scalarTransport write:
DILUPBiCGStab:  Solving for C, Initial residual = 0.00681412, Final residual = 5.89215e-07, No Iterations 16

mixingQuality = 0.60081
Time = 0.6s

ExecutionTime = 20.9236 s  ClockTime = 21 s

scalarTransport write:
DILUPBiCGStab:  Solving for C, Initial residual = 0.00657974, Final residual = 8.19859e-07, No Iterations 16

mixingQuality = 0.604753
Time = 0.61s

ExecutionTime = 21.178 s  ClockTime = 21 s

scalarTransport write:
DILUPBiCGStab:  Solving for C, Initial residual = 0.00635191, Final residual = 4.42269e-07, No Iterations 16

mixingQuality = 0.608562
Time = 0.62s

ExecutionTime = 21.4257 s  ClockTime = 22 s

scalarTransport write:
DILUPBiCGStab:  Solving for C, Initial residual = 0.00613039, Final residual = 4.70099e-07, No Iterations 16

mixingQuality = 0.612239
Time = 0.63s

ExecutionTime = 21.6737 s  ClockTime = 22 s

scalarTransport write:
DILUPBiCGStab:  Solving for C, Initial residual = 0.00591504, Final residual = 3.65332e-07, No Iterations 16

mixingQuality = 0.615788
Time = 0.64s

ExecutionTime = 21.9213 s  ClockTime = 22 s

scalarTransport write:
DILUPBiCGStab:  Solving for C, Initial residual = 0.00570567, Final residual = 4.12272e-07, No Iterations 16

mixingQuality = 0.619211
Time = 0.65s

ExecutionTime = 22.1689 s  ClockTime = 22 s

scalarTransport write:
DILUPBiCGStab:  Solving for C, Initial residual = 0.00550219, Final residual = 8.63013e-07, No Iterations 15

mixingQuality = 0.622504
Time = 0.66s

ExecutionTime = 22.41 s  ClockTime = 23 s

scalarTransport write:
DILUPBiCGStab:  Solving for C, Initial residual = 0.00530449, Final residual = 8.60497e-07, No Iterations 14

mixingQuality = 0.625679
Time = 0.67s

ExecutionTime = 22.6375 s  ClockTime = 23 s

scalarTransport write:
DILUPBiCGStab:  Solving for C, Initial residual = 0.00511245, Final residual = 9.09313e-07, No Iterations 14

mixingQuality = 0.628741
Time = 0.68s

ExecutionTime = 22.8587 s  ClockTime = 23 s

scalarTransport write:
DILUPBiCGStab:  Solving for C, Initial residual = 0.00492598, Final residual = 7.80517e-07, No Iterations 14

mixingQuality = 0.631693
Time = 0.69s

ExecutionTime = 23.0798 s  ClockTime = 23 s

scalarTransport write:
DILUPBiCGStab:  Solving for C, Initial residual = 0.00474503, Final residual = 8.33239e-07, No Iterations 14

mixingQuality = 0.634537
Time = 0.7s

ExecutionTime = 23.3007 s  ClockTime = 24 s

scalarTransport write:
DILUPBiCGStab:  Solving for C, Initial residual = 0.00456948, Final residual = 9.68645e-07, No Iterations 13

mixingQuality = 0.637278
Time = 0.71s

ExecutionTime = 23.515 s  ClockTime = 24 s

scalarTransport write:
DILUPBiCGStab:  Solving for C, Initial residual = 0.00439926, Final residual = 7.68178e-07, No Iterations 13

mixingQuality = 0.639918
Time = 0.72s

ExecutionTime = 23.7296 s  ClockTime = 24 s

scalarTransport write:
DILUPBiCGStab:  Solving for C, Initial residual = 0.00423432, Final residual = 9.23559e-07, No Iterations 13

mixingQuality = 0.642461
Time = 0.73s

ExecutionTime = 23.9375 s  ClockTime = 24 s

scalarTransport write:
DILUPBiCGStab:  Solving for C, Initial residual = 0.00407458, Final residual = 9.744e-07, No Iterations 12

mixingQuality = 0.644903
Time = 0.74s

ExecutionTime = 24.1388 s  ClockTime = 24 s

scalarTransport write:
DILUPBiCGStab:  Solving for C, Initial residual = 0.00391996, Final residual = 9.09471e-07, No Iterations 13

mixingQuality = 0.647252
Time = 0.75s

ExecutionTime = 24.3529 s  ClockTime = 25 s

scalarTransport write:
DILUPBiCGStab:  Solving for C, Initial residual = 0.0037704, Final residual = 8.25272e-07, No Iterations 13

mixingQuality = 0.649514
Time = 0.76s

ExecutionTime = 24.561 s  ClockTime = 25 s

scalarTransport write:
DILUPBiCGStab:  Solving for C, Initial residual = 0.00362583, Final residual = 3.63625e-07, No Iterations 14

mixingQuality = 0.651691
Time = 0.77s

ExecutionTime = 24.7821 s  ClockTime = 25 s

scalarTransport write:
DILUPBiCGStab:  Solving for C, Initial residual = 0.00348614, Final residual = 7.72828e-07, No Iterations 12

mixingQuality = 0.653786
Time = 0.78s

ExecutionTime = 24.9833 s  ClockTime = 25 s

scalarTransport write:
DILUPBiCGStab:  Solving for C, Initial residual = 0.00335119, Final residual = 9.88551e-07, No Iterations 12

mixingQuality = 0.655803
Time = 0.79s

ExecutionTime = 25.1782 s  ClockTime = 25 s

scalarTransport write:
DILUPBiCGStab:  Solving for C, Initial residual = 0.00322092, Final residual = 2.85746e-07, No Iterations 14

mixingQuality = 0.657743
Time = 0.8s

ExecutionTime = 25.399 s  ClockTime = 26 s

scalarTransport write:
DILUPBiCGStab:  Solving for C, Initial residual = 0.00309523, Final residual = 7.25752e-07, No Iterations 12

mixingQuality = 0.65961
Time = 0.81s

ExecutionTime = 25.6 s  ClockTime = 26 s

scalarTransport write:
DILUPBiCGStab:  Solving for C, Initial residual = 0.00297396, Final residual = 2.59399e-07, No Iterations 14

mixingQuality = 0.661406
Time = 0.82s

ExecutionTime = 25.8212 s  ClockTime = 26 s

scalarTransport write:
DILUPBiCGStab:  Solving for C, Initial residual = 0.00285704, Final residual = 7.65155e-07, No Iterations 12

mixingQuality = 0.663134
Time = 0.83s

ExecutionTime = 26.0153 s  ClockTime = 26 s

scalarTransport write:
DILUPBiCGStab:  Solving for C, Initial residual = 0.0027443, Final residual = 6.2429e-07, No Iterations 13

mixingQuality = 0.664795
Time = 0.84s

ExecutionTime = 26.223 s  ClockTime = 26 s

scalarTransport write:
DILUPBiCGStab:  Solving for C, Initial residual = 0.00263568, Final residual = 2.29492e-07, No Iterations 14

mixingQuality = 0.666393
Time = 0.85s

ExecutionTime = 26.4444 s  ClockTime = 27 s

scalarTransport write:
DILUPBiCGStab:  Solving for C, Initial residual = 0.00253105, Final residual = 7.25177e-07, No Iterations 12

mixingQuality = 0.66793
Time = 0.86s

ExecutionTime = 26.6451 s  ClockTime = 27 s

scalarTransport write:
DILUPBiCGStab:  Solving for C, Initial residual = 0.0024303, Final residual = 9.89906e-07, No Iterations 12

mixingQuality = 0.669406
Time = 0.87s

ExecutionTime = 26.8458 s  ClockTime = 27 s

scalarTransport write:
DILUPBiCGStab:  Solving for C, Initial residual = 0.00233332, Final residual = 5.41707e-07, No Iterations 12

mixingQuality = 0.670825
Time = 0.88s

ExecutionTime = 27.04 s  ClockTime = 27 s

scalarTransport write:
DILUPBiCGStab:  Solving for C, Initial residual = 0.00223999, Final residual = 5.59556e-07, No Iterations 12

mixingQuality = 0.672188
Time = 0.89s

ExecutionTime = 27.2345 s  ClockTime = 27 s

scalarTransport write:
DILUPBiCGStab:  Solving for C, Initial residual = 0.00215019, Final residual = 7.40176e-07, No Iterations 12

mixingQuality = 0.673499
Time = 0.9s

ExecutionTime = 27.4292 s  ClockTime = 28 s

scalarTransport write:
DILUPBiCGStab:  Solving for C, Initial residual = 0.00206378, Final residual = 6.92306e-07, No Iterations 12

mixingQuality = 0.674758
Time = 0.91s

ExecutionTime = 27.6235 s  ClockTime = 28 s

scalarTransport write:
DILUPBiCGStab:  Solving for C, Initial residual = 0.00198065, Final residual = 4.52611e-07, No Iterations 12

mixingQuality = 0.675969
Time = 0.92s

ExecutionTime = 27.8182 s  ClockTime = 28 s

scalarTransport write:
DILUPBiCGStab:  Solving for C, Initial residual = 0.00190068, Final residual = 8.78446e-07, No Iterations 11

mixingQuality = 0.677132
Time = 0.93s

ExecutionTime = 28.0058 s  ClockTime = 28 s

scalarTransport write:
DILUPBiCGStab:  Solving for C, Initial residual = 0.00182375, Final residual = 8.05923e-07, No Iterations 10

mixingQuality = 0.678249
Time = 0.94s

ExecutionTime = 28.18 s  ClockTime = 28 s

scalarTransport write:
DILUPBiCGStab:  Solving for C, Initial residual = 0.00174976, Final residual = 9.33432e-07, No Iterations 11

mixingQuality = 0.679322
Time = 0.95s

ExecutionTime = 28.361 s  ClockTime = 29 s

scalarTransport write:
DILUPBiCGStab:  Solving for C, Initial residual = 0.00167858, Final residual = 9.40386e-07, No Iterations 10

mixingQuality = 0.680353
Time = 0.96s

ExecutionTime = 28.5289 s  ClockTime = 29 s

scalarTransport write:
DILUPBiCGStab:  Solving for C, Initial residual = 0.00161013, Final residual = 8.51139e-07, No Iterations 11

mixingQuality = 0.681342
Time = 0.97s

ExecutionTime = 28.7099 s  ClockTime = 29 s

scalarTransport write:
DILUPBiCGStab:  Solving for C, Initial residual = 0.00154428, Final residual = 7.96171e-07, No Iterations 10

mixingQuality = 0.682292
Time = 0.98s

ExecutionTime = 28.8778 s  ClockTime = 29 s

scalarTransport write:
DILUPBiCGStab:  Solving for C, Initial residual = 0.00148096, Final residual = 8.21856e-07, No Iterations 10

mixingQuality = 0.683205
Time = 0.99s

ExecutionTime = 29.0451 s  ClockTime = 29 s

scalarTransport write:
DILUPBiCGStab:  Solving for C, Initial residual = 0.00142005, Final residual = 7.17044e-07, No Iterations 10

mixingQuality = 0.68408
Time = 1s

ExecutionTime = 29.2129 s  ClockTime = 29 s

scalarTransport write:
DILUPBiCGStab:  Solving for C, Initial residual = 0.00136147, Final residual = 7.09087e-07, No Iterations 10

mixingQuality = 0.68492
Time = 1.01s

ExecutionTime = 29.3807 s  ClockTime = 30 s

scalarTransport write:
DILUPBiCGStab:  Solving for C, Initial residual = 0.00130513, Final residual = 9.80292e-07, No Iterations 9

mixingQuality = 0.685727
Time = 1.02s

ExecutionTime = 29.5417 s  ClockTime = 30 s

scalarTransport write:
DILUPBiCGStab:  Solving for C, Initial residual = 0.00125095, Final residual = 8.38052e-07, No Iterations 9

mixingQuality = 0.6865
Time = 1.03s

ExecutionTime = 29.7029 s  ClockTime = 30 s

scalarTransport write:
DILUPBiCGStab:  Solving for C, Initial residual = 0.00119885, Final residual = 5.12879e-07, No Iterations 10

mixingQuality = 0.687242
Time = 1.04s

ExecutionTime = 29.8708 s  ClockTime = 30 s

scalarTransport write:
DILUPBiCGStab:  Solving for C, Initial residual = 0.00114874, Final residual = 8.03823e-07, No Iterations 9

mixingQuality = 0.687953
Time = 1.05s

ExecutionTime = 30.0317 s  ClockTime = 30 s

scalarTransport write:
DILUPBiCGStab:  Solving for C, Initial residual = 0.00110057, Final residual = 5.06806e-07, No Iterations 10

mixingQuality = 0.688636
Time = 1.06s

ExecutionTime = 30.1994 s  ClockTime = 30 s

scalarTransport write:
DILUPBiCGStab:  Solving for C, Initial residual = 0.00105424, Final residual = 8.75078e-07, No Iterations 9

mixingQuality = 0.68929
Time = 1.07s

ExecutionTime = 30.354 s  ClockTime = 31 s

scalarTransport write:
DILUPBiCGStab:  Solving for C, Initial residual = 0.00100973, Final residual = 8.52978e-07, No Iterations 8

mixingQuality = 0.689917
Time = 1.08s

ExecutionTime = 30.5014 s  ClockTime = 31 s

scalarTransport write:
DILUPBiCGStab:  Solving for C, Initial residual = 0.000966917, Final residual = 8.16879e-07, No Iterations 8

mixingQuality = 0.690518
Time = 1.09s

ExecutionTime = 30.6495 s  ClockTime = 31 s

scalarTransport write:
DILUPBiCGStab:  Solving for C, Initial residual = 0.000925771, Final residual = 8.77204e-07, No Iterations 8

mixingQuality = 0.691094
Time = 1.1s

ExecutionTime = 30.7972 s  ClockTime = 31 s

scalarTransport write:
DILUPBiCGStab:  Solving for C, Initial residual = 0.000886241, Final residual = 9.05241e-07, No Iterations 8

mixingQuality = 0.691645
Time = 1.11s

ExecutionTime = 30.9388 s  ClockTime = 31 s

scalarTransport write:
DILUPBiCGStab:  Solving for C, Initial residual = 0.000848228, Final residual = 9.62007e-07, No Iterations 8

mixingQuality = 0.692173
Time = 1.12s

ExecutionTime = 31.0869 s  ClockTime = 31 s

scalarTransport write:
DILUPBiCGStab:  Solving for C, Initial residual = 0.000811741, Final residual = 8.31333e-07, No Iterations 8

mixingQuality = 0.69268
Time = 1.13s

ExecutionTime = 31.2282 s  ClockTime = 31 s

scalarTransport write:
DILUPBiCGStab:  Solving for C, Initial residual = 0.000776645, Final residual = 9.95747e-07, No Iterations 7

mixingQuality = 0.693164
Time = 1.14s

ExecutionTime = 31.3633 s  ClockTime = 32 s

scalarTransport write:
DILUPBiCGStab:  Solving for C, Initial residual = 0.000743009, Final residual = 9.18691e-07, No Iterations 7

mixingQuality = 0.693628
Time = 1.15s

ExecutionTime = 31.498 s  ClockTime = 32 s

scalarTransport write:
DILUPBiCGStab:  Solving for C, Initial residual = 0.000710605, Final residual = 9.65562e-07, No Iterations 7

mixingQuality = 0.694072
Time = 1.16s

ExecutionTime = 31.6327 s  ClockTime = 32 s

scalarTransport write:
DILUPBiCGStab:  Solving for C, Initial residual = 0.000679557, Final residual = 9.87076e-07, No Iterations 7

mixingQuality = 0.694497
Time = 1.17s

ExecutionTime = 31.7609 s  ClockTime = 32 s

scalarTransport write:
DILUPBiCGStab:  Solving for C, Initial residual = 0.000649725, Final residual = 7.05951e-07, No Iterations 8

mixingQuality = 0.694903
Time = 1.18s

ExecutionTime = 31.902 s  ClockTime = 32 s

scalarTransport write:
DILUPBiCGStab:  Solving for C, Initial residual = 0.0006211, Final residual = 8.08856e-07, No Iterations 7

mixingQuality = 0.695292
Time = 1.19s

ExecutionTime = 32.0297 s  ClockTime = 32 s

scalarTransport write:
DILUPBiCGStab:  Solving for C, Initial residual = 0.000593642, Final residual = 8.46578e-07, No Iterations 7

mixingQuality = 0.695664
Time = 1.2s

ExecutionTime = 32.1575 s  ClockTime = 32 s

scalarTransport write:
DILUPBiCGStab:  Solving for C, Initial residual = 0.000567269, Final residual = 9.97774e-07, No Iterations 6

mixingQuality = 0.696019
Time = 1.21s

ExecutionTime = 32.2785 s  ClockTime = 33 s

scalarTransport write:
DILUPBiCGStab:  Solving for C, Initial residual = 0.000542033, Final residual = 7.32645e-07, No Iterations 7

mixingQuality = 0.696359
Time = 1.22s

ExecutionTime = 32.4063 s  ClockTime = 33 s

scalarTransport write:
DILUPBiCGStab:  Solving for C, Initial residual = 0.000517723, Final residual = 8.78931e-07, No Iterations 6

mixingQuality = 0.696684
Time = 1.23s

ExecutionTime = 32.5274 s  ClockTime = 33 s

scalarTransport write:
DILUPBiCGStab:  Solving for C, Initial residual = 0.000494598, Final residual = 6.51553e-07, No Iterations 7

mixingQuality = 0.696994
Time = 1.24s

ExecutionTime = 32.6552 s  ClockTime = 33 s

scalarTransport write:
DILUPBiCGStab:  Solving for C, Initial residual = 0.000472133, Final residual = 5.81437e-07, No Iterations 7

mixingQuality = 0.697291
Time = 1.25s

ExecutionTime = 32.7834 s  ClockTime = 33 s

scalarTransport write:
DILUPBiCGStab:  Solving for C, Initial residual = 0.000450736, Final residual = 8.49785e-07, No Iterations 6

mixingQuality = 0.697574
Time = 1.26s

ExecutionTime = 32.9045 s  ClockTime = 33 s

scalarTransport write:
DILUPBiCGStab:  Solving for C, Initial residual = 0.000430282, Final residual = 9.76613e-07, No Iterations 6

mixingQuality = 0.697844
Time = 1.27s

ExecutionTime = 33.0259 s  ClockTime = 33 s

scalarTransport write:
DILUPBiCGStab:  Solving for C, Initial residual = 0.000410744, Final residual = 5.49595e-07, No Iterations 7

mixingQuality = 0.698102
Time = 1.28s

ExecutionTime = 33.1542 s  ClockTime = 33 s

scalarTransport write:
DILUPBiCGStab:  Solving for C, Initial residual = 0.000391756, Final residual = 9.40471e-07, No Iterations 5

mixingQuality = 0.698349
Time = 1.29s

ExecutionTime = 33.2624 s  ClockTime = 34 s

scalarTransport write:
DILUPBiCGStab:  Solving for C, Initial residual = 0.000373795, Final residual = 9.73653e-07, No Iterations 5

mixingQuality = 0.698584
Time = 1.3s

ExecutionTime = 33.3701 s  ClockTime = 34 s

scalarTransport write:
DILUPBiCGStab:  Solving for C, Initial residual = 0.000356569, Final residual = 9.37852e-07, No Iterations 5

mixingQuality = 0.698808
Time = 1.31s

ExecutionTime = 33.4781 s  ClockTime = 34 s

scalarTransport write:
DILUPBiCGStab:  Solving for C, Initial residual = 0.000340039, Final residual = 6.97298e-07, No Iterations 6

mixingQuality = 0.699022
Time = 1.32s

ExecutionTime = 33.5931 s  ClockTime = 34 s

scalarTransport write:
DILUPBiCGStab:  Solving for C, Initial residual = 0.000324049, Final residual = 9.45706e-07, No Iterations 5

mixingQuality = 0.699226
Time = 1.33s

ExecutionTime = 33.6948 s  ClockTime = 34 s

scalarTransport write:
DILUPBiCGStab:  Solving for C, Initial residual = 0.000309014, Final residual = 8.7828e-07, No Iterations 6

mixingQuality = 0.699421
Time = 1.34s

ExecutionTime = 33.8162 s  ClockTime = 34 s

scalarTransport write:
DILUPBiCGStab:  Solving for C, Initial residual = 0.000294371, Final residual = 8.74861e-07, No Iterations 5

mixingQuality = 0.699606
Time = 1.35s

ExecutionTime = 33.9176 s  ClockTime = 34 s

scalarTransport write:
DILUPBiCGStab:  Solving for C, Initial residual = 0.000280549, Final residual = 9.15274e-07, No Iterations 5

mixingQuality = 0.699783
Time = 1.36s

ExecutionTime = 34.0189 s  ClockTime = 34 s

scalarTransport write:
DILUPBiCGStab:  Solving for C, Initial residual = 0.000267351, Final residual = 9.94768e-07, No Iterations 5

mixingQuality = 0.699951
Time = 1.37s

ExecutionTime = 34.1202 s  ClockTime = 34 s

scalarTransport write:
DILUPBiCGStab:  Solving for C, Initial residual = 0.000254579, Final residual = 8.46132e-07, No Iterations 5

mixingQuality = 0.700111
Time = 1.38s

ExecutionTime = 34.2216 s  ClockTime = 34 s

scalarTransport write:
DILUPBiCGStab:  Solving for C, Initial residual = 0.000242366, Final residual = 7.94853e-07, No Iterations 5

mixingQuality = 0.700264
Time = 1.39s

ExecutionTime = 34.323 s  ClockTime = 35 s

scalarTransport write:
DILUPBiCGStab:  Solving for C, Initial residual = 0.000230727, Final residual = 7.63019e-07, No Iterations 5

mixingQuality = 0.700409
Time = 1.4s

ExecutionTime = 34.4245 s  ClockTime = 35 s

scalarTransport write:
DILUPBiCGStab:  Solving for C, Initial residual = 0.000219588, Final residual = 6.66472e-07, No Iterations 5

mixingQuality = 0.700548
Time = 1.41s

ExecutionTime = 34.5257 s  ClockTime = 35 s

scalarTransport write:
DILUPBiCGStab:  Solving for C, Initial residual = 0.000208942, Final residual = 9.85627e-07, No Iterations 4

mixingQuality = 0.700679
Time = 1.42s

ExecutionTime = 34.6205 s  ClockTime = 35 s

scalarTransport write:
DILUPBiCGStab:  Solving for C, Initial residual = 0.000198772, Final residual = 9.26553e-07, No Iterations 4

mixingQuality = 0.700804
Time = 1.43s

ExecutionTime = 34.7154 s  ClockTime = 35 s

scalarTransport write:
DILUPBiCGStab:  Solving for C, Initial residual = 0.000189073, Final residual = 8.91835e-07, No Iterations 4

mixingQuality = 0.700923
Time = 1.44s

ExecutionTime = 34.8101 s  ClockTime = 35 s

scalarTransport write:
DILUPBiCGStab:  Solving for C, Initial residual = 0.000179834, Final residual = 8.15916e-07, No Iterations 4

mixingQuality = 0.701037
Time = 1.45s

ExecutionTime = 34.9048 s  ClockTime = 35 s

scalarTransport write:
DILUPBiCGStab:  Solving for C, Initial residual = 0.000171002, Final residual = 7.49212e-07, No Iterations 4

mixingQuality = 0.701144
Time = 1.46s

ExecutionTime = 34.9992 s  ClockTime = 35 s

scalarTransport write:
DILUPBiCGStab:  Solving for C, Initial residual = 0.000162545, Final residual = 7.06362e-07, No Iterations 4

mixingQuality = 0.701247
Time = 1.47s

ExecutionTime = 35.0939 s  ClockTime = 35 s

scalarTransport write:
DILUPBiCGStab:  Solving for C, Initial residual = 0.000154467, Final residual = 6.62137e-07, No Iterations 4

mixingQuality = 0.701344
Time = 1.48s

ExecutionTime = 35.1885 s  ClockTime = 35 s

scalarTransport write:
DILUPBiCGStab:  Solving for C, Initial residual = 0.000146753, Final residual = 9.4707e-07, No Iterations 4

mixingQuality = 0.701436
Time = 1.49s

ExecutionTime = 35.2769 s  ClockTime = 36 s

scalarTransport write:
DILUPBiCGStab:  Solving for C, Initial residual = 0.000139437, Final residual = 9.36993e-07, No Iterations 4

mixingQuality = 0.701524
Time = 1.5s

ExecutionTime = 35.3651 s  ClockTime = 36 s

scalarTransport write:
DILUPBiCGStab:  Solving for C, Initial residual = 0.000132501, Final residual = 6.98335e-07, No Iterations 4

mixingQuality = 0.701608
Time = 1.51s

ExecutionTime = 35.4596 s  ClockTime = 36 s

scalarTransport write:
DILUPBiCGStab:  Solving for C, Initial residual = 0.000125844, Final residual = 7.00442e-07, No Iterations 4

mixingQuality = 0.701687
Time = 1.52s

ExecutionTime = 35.5545 s  ClockTime = 36 s

scalarTransport write:
DILUPBiCGStab:  Solving for C, Initial residual = 0.000119412, Final residual = 8.10843e-07, No Iterations 4

mixingQuality = 0.701762
Time = 1.53s

ExecutionTime = 35.6426 s  ClockTime = 36 s

scalarTransport write:
DILUPBiCGStab:  Solving for C, Initial residual = 0.000113269, Final residual = 7.15833e-07, No Iterations 4

mixingQuality = 0.701833
Time = 1.54s

ExecutionTime = 35.7305 s  ClockTime = 36 s

scalarTransport write:
DILUPBiCGStab:  Solving for C, Initial residual = 0.000107407, Final residual = 7.0242e-07, No Iterations 4

mixingQuality = 0.701901
Time = 1.55s

ExecutionTime = 35.8185 s  ClockTime = 36 s

scalarTransport write:
DILUPBiCGStab:  Solving for C, Initial residual = 0.000101882, Final residual = 6.95017e-07, No Iterations 4

mixingQuality = 0.701965
Time = 1.56s

ExecutionTime = 35.9065 s  ClockTime = 36 s

scalarTransport write:
DILUPBiCGStab:  Solving for C, Initial residual = 9.66323e-05, Final residual = 6.18086e-07, No Iterations 4

mixingQuality = 0.702026
Time = 1.57s

ExecutionTime = 35.9945 s  ClockTime = 36 s

scalarTransport write:
DILUPBiCGStab:  Solving for C, Initial residual = 9.16122e-05, Final residual = 5.4702e-07, No Iterations 4

mixingQuality = 0.702083
Time = 1.58s

ExecutionTime = 36.0827 s  ClockTime = 36 s

scalarTransport write:
DILUPBiCGStab:  Solving for C, Initial residual = 8.68331e-05, Final residual = 5.06615e-07, No Iterations 4

mixingQuality = 0.702138
Time = 1.59s

ExecutionTime = 36.1709 s  ClockTime = 36 s

scalarTransport write:
DILUPBiCGStab:  Solving for C, Initial residual = 8.22951e-05, Final residual = 4.88855e-07, No Iterations 4

mixingQuality = 0.70219
Time = 1.6s

ExecutionTime = 36.2592 s  ClockTime = 37 s

scalarTransport write:
DILUPBiCGStab:  Solving for C, Initial residual = 7.79813e-05, Final residual = 4.71625e-07, No Iterations 4

mixingQuality = 0.702239
Time = 1.61s

ExecutionTime = 36.3473 s  ClockTime = 37 s

scalarTransport write:
DILUPBiCGStab:  Solving for C, Initial residual = 7.38593e-05, Final residual = 9.16306e-07, No Iterations 3

mixingQuality = 0.702285
Time = 1.62s

ExecutionTime = 36.4288 s  ClockTime = 37 s

scalarTransport write:
DILUPBiCGStab:  Solving for C, Initial residual = 6.99276e-05, Final residual = 7.98023e-07, No Iterations 3

mixingQuality = 0.702329
Time = 1.63s

ExecutionTime = 36.5104 s  ClockTime = 37 s

scalarTransport write:
DILUPBiCGStab:  Solving for C, Initial residual = 6.622e-05, Final residual = 7.47012e-07, No Iterations 3

mixingQuality = 0.70237
Time = 1.64s

ExecutionTime = 36.5918 s  ClockTime = 37 s

scalarTransport write:
DILUPBiCGStab:  Solving for C, Initial residual = 6.26966e-05, Final residual = 7.04006e-07, No Iterations 3

mixingQuality = 0.702409
Time = 1.65s

ExecutionTime = 36.6733 s  ClockTime = 37 s

scalarTransport write:
DILUPBiCGStab:  Solving for C, Initial residual = 5.93483e-05, Final residual = 6.77867e-07, No Iterations 3

mixingQuality = 0.702447
Time = 1.66s

ExecutionTime = 36.7544 s  ClockTime = 37 s

scalarTransport write:
DILUPBiCGStab:  Solving for C, Initial residual = 5.61671e-05, Final residual = 6.379e-07, No Iterations 3

mixingQuality = 0.702482
Time = 1.67s

ExecutionTime = 36.8358 s  ClockTime = 37 s

scalarTransport write:
DILUPBiCGStab:  Solving for C, Initial residual = 5.31355e-05, Final residual = 9.29045e-07, No Iterations 3

mixingQuality = 0.702515
Time = 1.68s

ExecutionTime = 36.9108 s  ClockTime = 37 s

scalarTransport write:
DILUPBiCGStab:  Solving for C, Initial residual = 5.02765e-05, Final residual = 9.03592e-07, No Iterations 3

mixingQuality = 0.702546
Time = 1.69s

ExecutionTime = 36.9859 s  ClockTime = 37 s

scalarTransport write:
DILUPBiCGStab:  Solving for C, Initial residual = 4.75525e-05, Final residual = 8.70639e-07, No Iterations 3

mixingQuality = 0.702576
Time = 1.7s

ExecutionTime = 37.0608 s  ClockTime = 37 s

scalarTransport write:
DILUPBiCGStab:  Solving for C, Initial residual = 4.49636e-05, Final residual = 8.35586e-07, No Iterations 3

mixingQuality = 0.702604
Time = 1.71s

ExecutionTime = 37.1357 s  ClockTime = 37 s

scalarTransport write:
DILUPBiCGStab:  Solving for C, Initial residual = 4.25099e-05, Final residual = 7.94169e-07, No Iterations 3

mixingQuality = 0.702631
Time = 1.72s

ExecutionTime = 37.2103 s  ClockTime = 37 s

scalarTransport write:
DILUPBiCGStab:  Solving for C, Initial residual = 4.01742e-05, Final residual = 7.44023e-07, No Iterations 3

mixingQuality = 0.702656
Time = 1.73s

ExecutionTime = 37.2852 s  ClockTime = 38 s

scalarTransport write:
DILUPBiCGStab:  Solving for C, Initial residual = 3.79455e-05, Final residual = 6.86988e-07, No Iterations 3

mixingQuality = 0.702679
Time = 1.74s

ExecutionTime = 37.3602 s  ClockTime = 38 s

scalarTransport write:
DILUPBiCGStab:  Solving for C, Initial residual = 3.58303e-05, Final residual = 6.34652e-07, No Iterations 3

mixingQuality = 0.702702
Time = 1.75s

ExecutionTime = 37.4352 s  ClockTime = 38 s

scalarTransport write:
DILUPBiCGStab:  Solving for C, Initial residual = 3.3822e-05, Final residual = 5.90271e-07, No Iterations 3

mixingQuality = 0.702723
Time = 1.76s

ExecutionTime = 37.51 s  ClockTime = 38 s

scalarTransport write:
DILUPBiCGStab:  Solving for C, Initial residual = 3.19226e-05, Final residual = 5.53888e-07, No Iterations 3

mixingQuality = 0.702743
Time = 1.77s

ExecutionTime = 37.5848 s  ClockTime = 38 s

scalarTransport write:
DILUPBiCGStab:  Solving for C, Initial residual = 3.01204e-05, Final residual = 5.18356e-07, No Iterations 3

mixingQuality = 0.702762
Time = 1.78s

ExecutionTime = 37.6597 s  ClockTime = 38 s

scalarTransport write:
DILUPBiCGStab:  Solving for C, Initial residual = 2.84118e-05, Final residual = 4.85879e-07, No Iterations 3

mixingQuality = 0.702779
Time = 1.79s

ExecutionTime = 37.7346 s  ClockTime = 38 s

scalarTransport write:
DILUPBiCGStab:  Solving for C, Initial residual = 2.67912e-05, Final residual = 4.57538e-07, No Iterations 3

mixingQuality = 0.702796
Time = 1.8s

ExecutionTime = 37.8095 s  ClockTime = 38 s

scalarTransport write:
DILUPBiCGStab:  Solving for C, Initial residual = 2.52567e-05, Final residual = 4.37575e-07, No Iterations 3

mixingQuality = 0.702812
Time = 1.81s

ExecutionTime = 37.8845 s  ClockTime = 38 s

scalarTransport write:
DILUPBiCGStab:  Solving for C, Initial residual = 2.38082e-05, Final residual = 4.18215e-07, No Iterations 3

mixingQuality = 0.702826
Time = 1.82s

ExecutionTime = 37.9594 s  ClockTime = 38 s

scalarTransport write:
DILUPBiCGStab:  Solving for C, Initial residual = 2.24394e-05, Final residual = 9.48435e-07, No Iterations 2

mixingQuality = 0.70284
Time = 1.83s

ExecutionTime = 38.0277 s  ClockTime = 38 s

scalarTransport write:
DILUPBiCGStab:  Solving for C, Initial residual = 2.11741e-05, Final residual = 8.30408e-07, No Iterations 2

mixingQuality = 0.702853
Time = 1.84s

ExecutionTime = 38.0959 s  ClockTime = 38 s

scalarTransport write:
DILUPBiCGStab:  Solving for C, Initial residual = 1.99739e-05, Final residual = 7.74869e-07, No Iterations 2

mixingQuality = 0.702865
Time = 1.85s

ExecutionTime = 38.164 s  ClockTime = 38 s

scalarTransport write:
DILUPBiCGStab:  Solving for C, Initial residual = 1.88308e-05, Final residual = 7.36693e-07, No Iterations 2

mixingQuality = 0.702877
Time = 1.86s

ExecutionTime = 38.2322 s  ClockTime = 38 s

scalarTransport write:
DILUPBiCGStab:  Solving for C, Initial residual = 1.77525e-05, Final residual = 7.16579e-07, No Iterations 2

mixingQuality = 0.702888
Time = 1.87s

ExecutionTime = 38.3002 s  ClockTime = 39 s

scalarTransport write:
DILUPBiCGStab:  Solving for C, Initial residual = 1.67392e-05, Final residual = 7.22435e-07, No Iterations 2

mixingQuality = 0.702898
Time = 1.88s

ExecutionTime = 38.3684 s  ClockTime = 39 s

scalarTransport write:
DILUPBiCGStab:  Solving for C, Initial residual = 1.57789e-05, Final residual = 7.33245e-07, No Iterations 2

mixingQuality = 0.702908
Time = 1.89s

ExecutionTime = 38.4366 s  ClockTime = 39 s

scalarTransport write:
DILUPBiCGStab:  Solving for C, Initial residual = 1.48642e-05, Final residual = 7.35805e-07, No Iterations 2

mixingQuality = 0.702917
Time = 1.9s

ExecutionTime = 38.5049 s  ClockTime = 39 s

scalarTransport write:
DILUPBiCGStab:  Solving for C, Initial residual = 1.40002e-05, Final residual = 6.95314e-07, No Iterations 2

mixingQuality = 0.702925
Time = 1.91s

ExecutionTime = 38.573 s  ClockTime = 39 s

scalarTransport write:
DILUPBiCGStab:  Solving for C, Initial residual = 1.31802e-05, Final residual = 9.80865e-07, No Iterations 2

mixingQuality = 0.702933
Time = 1.92s

ExecutionTime = 38.6347 s  ClockTime = 39 s

scalarTransport write:
DILUPBiCGStab:  Solving for C, Initial residual = 1.2432e-05, Final residual = 8.98071e-07, No Iterations 2

mixingQuality = 0.702941
Time = 1.93s

ExecutionTime = 38.6959 s  ClockTime = 39 s

scalarTransport write:
DILUPBiCGStab:  Solving for C, Initial residual = 1.17234e-05, Final residual = 8.47063e-07, No Iterations 2

mixingQuality = 0.702948
Time = 1.94s

ExecutionTime = 38.7571 s  ClockTime = 39 s

scalarTransport write:
DILUPBiCGStab:  Solving for C, Initial residual = 1.10493e-05, Final residual = 8.0931e-07, No Iterations 2

mixingQuality = 0.702955
Time = 1.95s

ExecutionTime = 38.8186 s  ClockTime = 39 s

scalarTransport write:
DILUPBiCGStab:  Solving for C, Initial residual = 1.0399e-05, Final residual = 7.69305e-07, No Iterations 2

mixingQuality = 0.702961
Time = 1.96s

ExecutionTime = 38.8803 s  ClockTime = 39 s

scalarTransport write:
DILUPBiCGStab:  Solving for C, Initial residual = 9.76778e-06, Final residual = 7.22485e-07, No Iterations 2

mixingQuality = 0.702967
Time = 1.97s

ExecutionTime = 38.9421 s  ClockTime = 39 s

scalarTransport write:
DILUPBiCGStab:  Solving for C, Initial residual = 9.16265e-06, Final residual = 6.67635e-07, No Iterations 2

mixingQuality = 0.702972
Time = 1.98s

ExecutionTime = 39.004 s  ClockTime = 39 s

scalarTransport write:
DILUPBiCGStab:  Solving for C, Initial residual = 8.5908e-06, Final residual = 6.11445e-07, No Iterations 2

mixingQuality = 0.702977
Time = 1.99s

ExecutionTime = 39.0657 s  ClockTime = 39 s

scalarTransport write:
DILUPBiCGStab:  Solving for C, Initial residual = 8.05424e-06, Final residual = 5.60424e-07, No Iterations 2

mixingQuality = 0.702982
Time = 2s

ExecutionTime = 39.1271 s  ClockTime = 39 s

scalarTransport write:
DILUPBiCGStab:  Solving for C, Initial residual = 7.55085e-06, Final residual = 5.15914e-07, No Iterations 2

mixingQuality = 0.702987
Time = 2.01s

ExecutionTime = 39.1887 s  ClockTime = 39 s

scalarTransport write:
DILUPBiCGStab:  Solving for C, Initial residual = 7.07879e-06, Final residual = 9.52841e-07, No Iterations 1

mixingQuality = 0.702991
Time = 2.02s

ExecutionTime = 39.2434 s  ClockTime = 40 s

scalarTransport write:
DILUPBiCGStab:  Solving for C, Initial residual = 6.65021e-06, Final residual = 8.67166e-07, No Iterations 1

mixingQuality = 0.702995
Time = 2.03s

ExecutionTime = 39.2982 s  ClockTime = 40 s

scalarTransport write:
DILUPBiCGStab:  Solving for C, Initial residual = 6.25853e-06, Final residual = 7.78471e-07, No Iterations 1

mixingQuality = 0.702998
Time = 2.04s

ExecutionTime = 39.3528 s  ClockTime = 40 s

scalarTransport write:
DILUPBiCGStab:  Solving for C, Initial residual = 5.88541e-06, Final residual = 7.22372e-07, No Iterations 1

mixingQuality = 0.703002
Time = 2.05s

ExecutionTime = 39.4077 s  ClockTime = 40 s

scalarTransport write:
DILUPBiCGStab:  Solving for C, Initial residual = 5.53177e-06, Final residual = 6.75162e-07, No Iterations 1

mixingQuality = 0.703005
Time = 2.06s

ExecutionTime = 39.4625 s  ClockTime = 40 s

scalarTransport write:
DILUPBiCGStab:  Solving for C, Initial residual = 5.19665e-06, Final residual = 6.32531e-07, No Iterations 1

mixingQuality = 0.703008
Time = 2.07s

ExecutionTime = 39.5172 s  ClockTime = 40 s

scalarTransport write:
DILUPBiCGStab:  Solving for C, Initial residual = 4.87918e-06, Final residual = 5.93712e-07, No Iterations 1

mixingQuality = 0.703011
Time = 2.08s

ExecutionTime = 39.5718 s  ClockTime = 40 s

scalarTransport write:
DILUPBiCGStab:  Solving for C, Initial residual = 4.57887e-06, Final residual = 5.58123e-07, No Iterations 1

mixingQuality = 0.703014
Time = 2.09s

ExecutionTime = 39.6265 s  ClockTime = 40 s

scalarTransport write:
DILUPBiCGStab:  Solving for C, Initial residual = 4.29523e-06, Final residual = 5.25693e-07, No Iterations 1

mixingQuality = 0.703016
Time = 2.1s

ExecutionTime = 39.6812 s  ClockTime = 40 s

scalarTransport write:
DILUPBiCGStab:  Solving for C, Initial residual = 4.02786e-06, Final residual = 9.64688e-07, No Iterations 1

mixingQuality = 0.703018
Time = 2.11s

ExecutionTime = 39.7293 s  ClockTime = 40 s

scalarTransport write:
DILUPBiCGStab:  Solving for C, Initial residual = 3.87222e-06, Final residual = 7.67689e-07, No Iterations 1

mixingQuality = 0.70302
Time = 2.12s

ExecutionTime = 39.784 s  ClockTime = 40 s

scalarTransport write:
DILUPBiCGStab:  Solving for C, Initial residual = 3.61002e-06, Final residual = 8.21817e-07, No Iterations 1

mixingQuality = 0.703022
Time = 2.13s

ExecutionTime = 39.8323 s  ClockTime = 40 s

scalarTransport write:
DILUPBiCGStab:  Solving for C, Initial residual = 3.52624e-06, Final residual = 8.7705e-07, No Iterations 1

mixingQuality = 0.703024
Time = 2.14s

ExecutionTime = 39.8871 s  ClockTime = 40 s

scalarTransport write:
DILUPBiCGStab:  Solving for C, Initial residual = 3.32329e-06, Final residual = 7.67307e-07, No Iterations 1

mixingQuality = 0.703026
Time = 2.15s

ExecutionTime = 39.9419 s  ClockTime = 40 s

scalarTransport write:
DILUPBiCGStab:  Solving for C, Initial residual = 3.14828e-06, Final residual = 7.77435e-07, No Iterations 1

mixingQuality = 0.703027
Time = 2.16s

ExecutionTime = 39.9966 s  ClockTime = 40 s

scalarTransport write:
DILUPBiCGStab:  Solving for C, Initial residual = 2.99011e-06, Final residual = 8.02066e-07, No Iterations 1

mixingQuality = 0.703029
Time = 2.17s

ExecutionTime = 40.0513 s  ClockTime = 40 s

scalarTransport write:
DILUPBiCGStab:  Solving for C, Initial residual = 2.84046e-06, Final residual = 8.02377e-07, No Iterations 1

mixingQuality = 0.70303
Time = 2.18s

ExecutionTime = 40.1059 s  ClockTime = 40 s

scalarTransport write:
DILUPBiCGStab:  Solving for C, Initial residual = 2.69457e-06, Final residual = 7.78439e-07, No Iterations 1

mixingQuality = 0.703031
Time = 2.19s

ExecutionTime = 40.1607 s  ClockTime = 40 s

scalarTransport write:
DILUPBiCGStab:  Solving for C, Initial residual = 2.55131e-06, Final residual = 7.37585e-07, No Iterations 1

mixingQuality = 0.703032
Time = 2.2s

ExecutionTime = 40.2154 s  ClockTime = 40 s

scalarTransport write:
DILUPBiCGStab:  Solving for C, Initial residual = 2.41155e-06, Final residual = 6.89561e-07, No Iterations 1

mixingQuality = 0.703033
Time = 2.21s

ExecutionTime = 40.2704 s  ClockTime = 41 s

scalarTransport write:
DILUPBiCGStab:  Solving for C, Initial residual = 2.27667e-06, Final residual = 6.40559e-07, No Iterations 1

mixingQuality = 0.703034
Time = 2.22s

ExecutionTime = 40.3252 s  ClockTime = 41 s

scalarTransport write:
DILUPBiCGStab:  Solving for C, Initial residual = 2.14844e-06, Final residual = 5.95156e-07, No Iterations 1

mixingQuality = 0.703035
Time = 2.23s

ExecutionTime = 40.3799 s  ClockTime = 41 s

scalarTransport write:
DILUPBiCGStab:  Solving for C, Initial residual = 2.02771e-06, Final residual = 9.49943e-07, No Iterations 1

mixingQuality = 0.703036
Time = 2.24s

ExecutionTime = 40.4281 s  ClockTime = 41 s

scalarTransport write:
DILUPBiCGStab:  Solving for C, Initial residual = 2.1487e-06, Final residual = 9.23931e-07, No Iterations 1

mixingQuality = 0.703037
Time = 2.25s

ExecutionTime = 40.4827 s  ClockTime = 41 s

scalarTransport write:
DILUPBiCGStab:  Solving for C, Initial residual = 1.87522e-06, Final residual = 9.36699e-07, No Iterations 1

mixingQuality = 0.703038
Time = 2.26s

ExecutionTime = 40.531 s  ClockTime = 41 s

scalarTransport write:
DILUPBiCGStab:  Solving for C, Initial residual = 2.00891e-06, Final residual = 8.7979e-07, No Iterations 1

mixingQuality = 0.703038
Time = 2.27s

ExecutionTime = 40.5856 s  ClockTime = 41 s

scalarTransport write:
DILUPBiCGStab:  Solving for C, Initial residual = 1.71973e-06, Final residual = 8.79858e-07, No Iterations 1

mixingQuality = 0.703039
Time = 2.28s

ExecutionTime = 40.6339 s  ClockTime = 41 s

scalarTransport write:
DILUPBiCGStab:  Solving for C, Initial residual = 1.86514e-06, Final residual = 8.22535e-07, No Iterations 1

mixingQuality = 0.703039
Time = 2.29s

ExecutionTime = 40.6891 s  ClockTime = 41 s

scalarTransport write:
DILUPBiCGStab:  Solving for C, Initial residual = 1.59005e-06, Final residual = 8.46677e-07, No Iterations 1

mixingQuality = 0.70304
Time = 2.3s

ExecutionTime = 40.7373 s  ClockTime = 41 s

scalarTransport write:
DILUPBiCGStab:  Solving for C, Initial residual = 1.75752e-06, Final residual = 7.78915e-07, No Iterations 1

mixingQuality = 0.70304
Time = 2.31s

ExecutionTime = 40.7918 s  ClockTime = 41 s

scalarTransport write:
DILUPBiCGStab:  Solving for C, Initial residual = 1.48758e-06, Final residual = 8.50665e-07, No Iterations 1

mixingQuality = 0.703041
Time = 2.32s

ExecutionTime = 40.84 s  ClockTime = 41 s

scalarTransport write:
DILUPBiCGStab:  Solving for C, Initial residual = 1.67586e-06, Final residual = 7.4327e-07, No Iterations 1

mixingQuality = 0.703041
Time = 2.33s

ExecutionTime = 40.8947 s  ClockTime = 41 s

scalarTransport write:
DILUPBiCGStab:  Solving for C, Initial residual = 1.39794e-06, Final residual = 8.56167e-07, No Iterations 1

mixingQuality = 0.703042
Time = 2.34s

ExecutionTime = 40.943 s  ClockTime = 41 s

scalarTransport write:
DILUPBiCGStab:  Solving for C, Initial residual = 1.59853e-06, Final residual = 7.06028e-07, No Iterations 1

mixingQuality = 0.703042
Time = 2.35s

ExecutionTime = 40.998 s  ClockTime = 41 s

scalarTransport write:
DILUPBiCGStab:  Solving for C, Initial residual = 1.31204e-06, Final residual = 8.49351e-07, No Iterations 1

mixingQuality = 0.703043
Time = 2.36s

ExecutionTime = 41.0462 s  ClockTime = 41 s

scalarTransport write:
DILUPBiCGStab:  Solving for C, Initial residual = 1.51622e-06, Final residual = 6.65415e-07, No Iterations 1

mixingQuality = 0.703043
Time = 2.37s

ExecutionTime = 41.101 s  ClockTime = 41 s

scalarTransport write:
DILUPBiCGStab:  Solving for C, Initial residual = 1.22699e-06, Final residual = 8.27858e-07, No Iterations 1

mixingQuality = 0.703043
Time = 2.38s

ExecutionTime = 41.1493 s  ClockTime = 41 s

scalarTransport write:
DILUPBiCGStab:  Solving for C, Initial residual = 1.43054e-06, Final residual = 9.8842e-07, No Iterations 1

mixingQuality = 0.703044
Time = 2.39s

ExecutionTime = 41.1973 s  ClockTime = 41 s

scalarTransport write:
DILUPBiCGStab:  Solving for C, Initial residual = 1.47122e-06, Final residual = 9.80155e-07, No Iterations 1

mixingQuality = 0.703044
Time = 2.4s

ExecutionTime = 41.2456 s  ClockTime = 42 s

scalarTransport write:
DILUPBiCGStab:  Solving for C, Initial residual = 1.43159e-06, Final residual = 9.43729e-07, No Iterations 1

mixingQuality = 0.703044
Time = 2.41s

ExecutionTime = 41.2938 s  ClockTime = 42 s

scalarTransport write:
DILUPBiCGStab:  Solving for C, Initial residual = 1.38463e-06, Final residual = 9.09349e-07, No Iterations 1

mixingQuality = 0.703044
Time = 2.42s

ExecutionTime = 41.3419 s  ClockTime = 42 s

scalarTransport write:
DILUPBiCGStab:  Solving for C, Initial residual = 1.33167e-06, Final residual = 8.59728e-07, No Iterations 1

mixingQuality = 0.703044
Time = 2.43s

ExecutionTime = 41.39 s  ClockTime = 42 s

scalarTransport write:
DILUPBiCGStab:  Solving for C, Initial residual = 1.25981e-06, Final residual = 8.22965e-07, No Iterations 1

mixingQuality = 0.703045
Time = 2.44s

ExecutionTime = 41.4382 s  ClockTime = 42 s

scalarTransport write:
DILUPBiCGStab:  Solving for C, Initial residual = 1.21323e-06, Final residual = 7.88767e-07, No Iterations 1

mixingQuality = 0.703045
Time = 2.45s

ExecutionTime = 41.4864 s  ClockTime = 42 s

scalarTransport write:
DILUPBiCGStab:  Solving for C, Initial residual = 1.1602e-06, Final residual = 7.5004e-07, No Iterations 1

mixingQuality = 0.703045
Time = 2.46s

ExecutionTime = 41.5346 s  ClockTime = 42 s

scalarTransport write:
DILUPBiCGStab:  Solving for C, Initial residual = 1.10208e-06, Final residual = 7.27202e-07, No Iterations 1

mixingQuality = 0.703045
Time = 2.47s

ExecutionTime = 41.5827 s  ClockTime = 42 s

scalarTransport write:
DILUPBiCGStab:  Solving for C, Initial residual = 1.07632e-06, Final residual = 7.01348e-07, No Iterations 1

mixingQuality = 0.703045
Time = 2.48s

ExecutionTime = 41.6309 s  ClockTime = 42 s

scalarTransport write:
DILUPBiCGStab:  Solving for C, Initial residual = 1.031e-06, Final residual = 6.7636e-07, No Iterations 1

mixingQuality = 0.703045
Time = 2.49s

ExecutionTime = 41.679 s  ClockTime = 42 s

scalarTransport write:
DILUPBiCGStab:  Solving for C, Initial residual = 9.97417e-07, Final residual = 9.97417e-07, No Iterations 0

mixingQuality = 0.703045
Time = 2.5s

ExecutionTime = 41.7171 s  ClockTime = 42 s

scalarTransport write:
DILUPBiCGStab:  Solving for C, Initial residual = 9.97417e-07, Final residual = 9.97417e-07, No Iterations 0

mixingQuality = 0.703045
Time = 2.51s

ExecutionTime = 41.7553 s  ClockTime = 42 s

scalarTransport write:
DILUPBiCGStab:  Solving for C, Initial residual = 9.97417e-07, Final residual = 9.97417e-07, No Iterations 0

mixingQuality = 0.703045
Time = 2.52s

ExecutionTime = 41.7935 s  ClockTime = 42 s

scalarTransport write:
DILUPBiCGStab:  Solving for C, Initial residual = 9.97417e-07, Final residual = 9.97417e-07, No Iterations 0

mixingQuality = 0.703045
Time = 2.53s

ExecutionTime = 41.8316 s  ClockTime = 42 s

scalarTransport write:
DILUPBiCGStab:  Solving for C, Initial residual = 9.97417e-07, Final residual = 9.97417e-07, No Iterations 0

mixingQuality = 0.703045
Time = 2.54s

ExecutionTime = 41.8696 s  ClockTime = 42 s

scalarTransport write:
DILUPBiCGStab:  Solving for C, Initial residual = 9.97417e-07, Final residual = 9.97417e-07, No Iterations 0

mixingQuality = 0.703045
Time = 2.55s

ExecutionTime = 41.9076 s  ClockTime = 42 s

scalarTransport write:
DILUPBiCGStab:  Solving for C, Initial residual = 9.97417e-07, Final residual = 9.97417e-07, No Iterations 0

mixingQuality = 0.703045
Time = 2.56s

ExecutionTime = 41.9457 s  ClockTime = 42 s

scalarTransport write:
DILUPBiCGStab:  Solving for C, Initial residual = 9.97417e-07, Final residual = 9.97417e-07, No Iterations 0

mixingQuality = 0.703045
Time = 2.57s

ExecutionTime = 41.9838 s  ClockTime = 42 s

scalarTransport write:
DILUPBiCGStab:  Solving for C, Initial residual = 9.97417e-07, Final residual = 9.97417e-07, No Iterations 0

mixingQuality = 0.703045
Time = 2.58s

ExecutionTime = 42.0219 s  ClockTime = 42 s

scalarTransport write:
DILUPBiCGStab:  Solving for C, Initial residual = 9.97417e-07, Final residual = 9.97417e-07, No Iterations 0

mixingQuality = 0.703045
Time = 2.59s

ExecutionTime = 42.0602 s  ClockTime = 42 s

scalarTransport write:
DILUPBiCGStab:  Solving for C, Initial residual = 9.97417e-07, Final residual = 9.97417e-07, No Iterations 0

mixingQuality = 0.703045
Time = 2.6s

ExecutionTime = 42.0983 s  ClockTime = 42 s

scalarTransport write:
DILUPBiCGStab:  Solving for C, Initial residual = 9.97417e-07, Final residual = 9.97417e-07, No Iterations 0

mixingQuality = 0.703045
Time = 2.61s

ExecutionTime = 42.1365 s  ClockTime = 42 s

scalarTransport write:
DILUPBiCGStab:  Solving for C, Initial residual = 9.97417e-07, Final residual = 9.97417e-07, No Iterations 0

mixingQuality = 0.703045
Time = 2.62s

ExecutionTime = 42.1747 s  ClockTime = 42 s

scalarTransport write:
DILUPBiCGStab:  Solving for C, Initial residual = 9.97417e-07, Final residual = 9.97417e-07, No Iterations 0

mixingQuality = 0.703045
Time = 2.63s

ExecutionTime = 42.2128 s  ClockTime = 42 s

scalarTransport write:
DILUPBiCGStab:  Solving for C, Initial residual = 9.97417e-07, Final residual = 9.97417e-07, No Iterations 0

mixingQuality = 0.703045
Time = 2.64s

ExecutionTime = 42.251 s  ClockTime = 43 s

scalarTransport write:
DILUPBiCGStab:  Solving for C, Initial residual = 9.97417e-07, Final residual = 9.97417e-07, No Iterations 0

mixingQuality = 0.703045
Time = 2.65s

ExecutionTime = 42.2893 s  ClockTime = 43 s

scalarTransport write:
DILUPBiCGStab:  Solving for C, Initial residual = 9.97417e-07, Final residual = 9.97417e-07, No Iterations 0

mixingQuality = 0.703045
Time = 2.66s

ExecutionTime = 42.3276 s  ClockTime = 43 s

scalarTransport write:
DILUPBiCGStab:  Solving for C, Initial residual = 9.97417e-07, Final residual = 9.97417e-07, No Iterations 0

mixingQuality = 0.703045
Time = 2.67s

ExecutionTime = 42.3657 s  ClockTime = 43 s

scalarTransport write:
DILUPBiCGStab:  Solving for C, Initial residual = 9.97417e-07, Final residual = 9.97417e-07, No Iterations 0

mixingQuality = 0.703045
Time = 2.68s

ExecutionTime = 42.4038 s  ClockTime = 43 s

scalarTransport write:
DILUPBiCGStab:  Solving for C, Initial residual = 9.97417e-07, Final residual = 9.97417e-07, No Iterations 0

mixingQuality = 0.703045
Time = 2.69s

ExecutionTime = 42.442 s  ClockTime = 43 s

scalarTransport write:
DILUPBiCGStab:  Solving for C, Initial residual = 9.97417e-07, Final residual = 9.97417e-07, No Iterations 0

mixingQuality = 0.703045
Time = 2.7s

ExecutionTime = 42.4801 s  ClockTime = 43 s

scalarTransport write:
DILUPBiCGStab:  Solving for C, Initial residual = 9.97417e-07, Final residual = 9.97417e-07, No Iterations 0

mixingQuality = 0.703045
Time = 2.71s

ExecutionTime = 42.5181 s  ClockTime = 43 s

scalarTransport write:
DILUPBiCGStab:  Solving for C, Initial residual = 9.97417e-07, Final residual = 9.97417e-07, No Iterations 0

mixingQuality = 0.703045
Time = 2.72s

ExecutionTime = 42.5562 s  ClockTime = 43 s

scalarTransport write:
DILUPBiCGStab:  Solving for C, Initial residual = 9.97417e-07, Final residual = 9.97417e-07, No Iterations 0

mixingQuality = 0.703045
Time = 2.73s

ExecutionTime = 42.5944 s  ClockTime = 43 s

scalarTransport write:
DILUPBiCGStab:  Solving for C, Initial residual = 9.97417e-07, Final residual = 9.97417e-07, No Iterations 0

mixingQuality = 0.703045
Time = 2.74s

ExecutionTime = 42.6325 s  ClockTime = 43 s

scalarTransport write:
DILUPBiCGStab:  Solving for C, Initial residual = 9.97417e-07, Final residual = 9.97417e-07, No Iterations 0

mixingQuality = 0.703045
Time = 2.75s

ExecutionTime = 42.6709 s  ClockTime = 43 s

scalarTransport write:
DILUPBiCGStab:  Solving for C, Initial residual = 9.97417e-07, Final residual = 9.97417e-07, No Iterations 0

mixingQuality = 0.703045
Time = 2.76s

ExecutionTime = 42.709 s  ClockTime = 43 s

scalarTransport write:
DILUPBiCGStab:  Solving for C, Initial residual = 9.97417e-07, Final residual = 9.97417e-07, No Iterations 0

mixingQuality = 0.703045
Time = 2.77s

ExecutionTime = 42.7472 s  ClockTime = 43 s

scalarTransport write:
DILUPBiCGStab:  Solving for C, Initial residual = 9.97417e-07, Final residual = 9.97417e-07, No Iterations 0

mixingQuality = 0.703045
Time = 2.78s

ExecutionTime = 42.7853 s  ClockTime = 43 s

scalarTransport write:
DILUPBiCGStab:  Solving for C, Initial residual = 9.97417e-07, Final residual = 9.97417e-07, No Iterations 0

mixingQuality = 0.703045
Time = 2.79s

ExecutionTime = 42.8234 s  ClockTime = 43 s

scalarTransport write:
DILUPBiCGStab:  Solving for C, Initial residual = 9.97417e-07, Final residual = 9.97417e-07, No Iterations 0

mixingQuality = 0.703045
Time = 2.8s

ExecutionTime = 42.8615 s  ClockTime = 43 s

scalarTransport write:
DILUPBiCGStab:  Solving for C, Initial residual = 9.97417e-07, Final residual = 9.97417e-07, No Iterations 0

mixingQuality = 0.703045
Time = 2.81s

ExecutionTime = 42.8997 s  ClockTime = 43 s

scalarTransport write:
DILUPBiCGStab:  Solving for C, Initial residual = 9.97417e-07, Final residual = 9.97417e-07, No Iterations 0

mixingQuality = 0.703045
Time = 2.82s

ExecutionTime = 42.9381 s  ClockTime = 43 s

scalarTransport write:
DILUPBiCGStab:  Solving for C, Initial residual = 9.97417e-07, Final residual = 9.97417e-07, No Iterations 0

mixingQuality = 0.703045
Time = 2.83s

ExecutionTime = 42.9763 s  ClockTime = 43 s

scalarTransport write:
DILUPBiCGStab:  Solving for C, Initial residual = 9.97417e-07, Final residual = 9.97417e-07, No Iterations 0

mixingQuality = 0.703045
Time = 2.84s

ExecutionTime = 43.0145 s  ClockTime = 43 s

scalarTransport write:
DILUPBiCGStab:  Solving for C, Initial residual = 9.97417e-07, Final residual = 9.97417e-07, No Iterations 0

mixingQuality = 0.703045
Time = 2.85s

ExecutionTime = 43.0526 s  ClockTime = 43 s

scalarTransport write:
DILUPBiCGStab:  Solving for C, Initial residual = 9.97417e-07, Final residual = 9.97417e-07, No Iterations 0

mixingQuality = 0.703045
Time = 2.86s

ExecutionTime = 43.0908 s  ClockTime = 43 s

scalarTransport write:
DILUPBiCGStab:  Solving for C, Initial residual = 9.97417e-07, Final residual = 9.97417e-07, No Iterations 0

mixingQuality = 0.703045
Time = 2.87s

ExecutionTime = 43.1289 s  ClockTime = 43 s

scalarTransport write:
DILUPBiCGStab:  Solving for C, Initial residual = 9.97417e-07, Final residual = 9.97417e-07, No Iterations 0

mixingQuality = 0.703045
Time = 2.88s

ExecutionTime = 43.167 s  ClockTime = 43 s

scalarTransport write:
DILUPBiCGStab:  Solving for C, Initial residual = 9.97417e-07, Final residual = 9.97417e-07, No Iterations 0

mixingQuality = 0.703045
Time = 2.89s

ExecutionTime = 43.2054 s  ClockTime = 43 s

scalarTransport write:
DILUPBiCGStab:  Solving for C, Initial residual = 9.97417e-07, Final residual = 9.97417e-07, No Iterations 0

mixingQuality = 0.703045
Time = 2.9s

ExecutionTime = 43.2435 s  ClockTime = 44 s

scalarTransport write:
DILUPBiCGStab:  Solving for C, Initial residual = 9.97417e-07, Final residual = 9.97417e-07, No Iterations 0

mixingQuality = 0.703045
Time = 2.91s

ExecutionTime = 43.2816 s  ClockTime = 44 s

scalarTransport write:
DILUPBiCGStab:  Solving for C, Initial residual = 9.97417e-07, Final residual = 9.97417e-07, No Iterations 0

mixingQuality = 0.703045
Time = 2.92s

ExecutionTime = 43.3197 s  ClockTime = 44 s

scalarTransport write:
DILUPBiCGStab:  Solving for C, Initial residual = 9.97417e-07, Final residual = 9.97417e-07, No Iterations 0

mixingQuality = 0.703045
Time = 2.93s

ExecutionTime = 43.3579 s  ClockTime = 44 s

scalarTransport write:
DILUPBiCGStab:  Solving for C, Initial residual = 9.97417e-07, Final residual = 9.97417e-07, No Iterations 0

mixingQuality = 0.703045
Time = 2.94s

ExecutionTime = 43.396 s  ClockTime = 44 s

scalarTransport write:
DILUPBiCGStab:  Solving for C, Initial residual = 9.97417e-07, Final residual = 9.97417e-07, No Iterations 0

mixingQuality = 0.703045
Time = 2.95s

ExecutionTime = 43.4341 s  ClockTime = 44 s

scalarTransport write:
DILUPBiCGStab:  Solving for C, Initial residual = 9.97417e-07, Final residual = 9.97417e-07, No Iterations 0

mixingQuality = 0.703045
Time = 2.96s

ExecutionTime = 43.4722 s  ClockTime = 44 s

scalarTransport write:
DILUPBiCGStab:  Solving for C, Initial residual = 9.97417e-07, Final residual = 9.97417e-07, No Iterations 0

mixingQuality = 0.703045
Time = 2.97s

ExecutionTime = 43.5103 s  ClockTime = 44 s

scalarTransport write:
DILUPBiCGStab:  Solving for C, Initial residual = 9.97417e-07, Final residual = 9.97417e-07, No Iterations 0

mixingQuality = 0.703045
Time = 2.98s

ExecutionTime = 43.5484 s  ClockTime = 44 s

scalarTransport write:
DILUPBiCGStab:  Solving for C, Initial residual = 9.97417e-07, Final residual = 9.97417e-07, No Iterations 0

mixingQuality = 0.703045
Time = 2.99s

ExecutionTime = 43.5866 s  ClockTime = 44 s

scalarTransport write:
DILUPBiCGStab:  Solving for C, Initial residual = 9.97417e-07, Final residual = 9.97417e-07, No Iterations 0

mixingQuality = 0.703045
Time = 3s

ExecutionTime = 43.6248 s  ClockTime = 44 s

scalarTransport write:
DILUPBiCGStab:  Solving for C, Initial residual = 9.97417e-07, Final residual = 9.97417e-07, No Iterations 0

mixingQuality = 0.703045
Time = 3.01s

ExecutionTime = 43.663 s  ClockTime = 44 s

scalarTransport write:
DILUPBiCGStab:  Solving for C, Initial residual = 9.97417e-07, Final residual = 9.97417e-07, No Iterations 0

mixingQuality = 0.703045
Time = 3.02s

ExecutionTime = 43.7011 s  ClockTime = 44 s

scalarTransport write:
DILUPBiCGStab:  Solving for C, Initial residual = 9.97417e-07, Final residual = 9.97417e-07, No Iterations 0

mixingQuality = 0.703045
Time = 3.03s

ExecutionTime = 43.7393 s  ClockTime = 44 s

scalarTransport write:
DILUPBiCGStab:  Solving for C, Initial residual = 9.97417e-07, Final residual = 9.97417e-07, No Iterations 0

mixingQuality = 0.703045
Time = 3.04s

ExecutionTime = 43.7774 s  ClockTime = 44 s

scalarTransport write:
DILUPBiCGStab:  Solving for C, Initial residual = 9.97417e-07, Final residual = 9.97417e-07, No Iterations 0

mixingQuality = 0.703045
Time = 3.05s

ExecutionTime = 43.8155 s  ClockTime = 44 s

scalarTransport write:
DILUPBiCGStab:  Solving for C, Initial residual = 9.97417e-07, Final residual = 9.97417e-07, No Iterations 0

mixingQuality = 0.703045
Time = 3.06s

ExecutionTime = 43.8537 s  ClockTime = 44 s

scalarTransport write:
DILUPBiCGStab:  Solving for C, Initial residual = 9.97417e-07, Final residual = 9.97417e-07, No Iterations 0

mixingQuality = 0.703045
Time = 3.07s

ExecutionTime = 43.8918 s  ClockTime = 44 s

scalarTransport write:
DILUPBiCGStab:  Solving for C, Initial residual = 9.97417e-07, Final residual = 9.97417e-07, No Iterations 0

mixingQuality = 0.703045
Time = 3.08s

ExecutionTime = 43.9299 s  ClockTime = 44 s

scalarTransport write:
DILUPBiCGStab:  Solving for C, Initial residual = 9.97417e-07, Final residual = 9.97417e-07, No Iterations 0

mixingQuality = 0.703045
Time = 3.09s

ExecutionTime = 43.968 s  ClockTime = 44 s

scalarTransport write:
DILUPBiCGStab:  Solving for C, Initial residual = 9.97417e-07, Final residual = 9.97417e-07, No Iterations 0

mixingQuality = 0.703045
Time = 3.1s

ExecutionTime = 44.0061 s  ClockTime = 44 s

scalarTransport write:
DILUPBiCGStab:  Solving for C, Initial residual = 9.97417e-07, Final residual = 9.97417e-07, No Iterations 0

mixingQuality = 0.703045
Time = 3.11s

ExecutionTime = 44.0442 s  ClockTime = 44 s

scalarTransport write:
DILUPBiCGStab:  Solving for C, Initial residual = 9.97417e-07, Final residual = 9.97417e-07, No Iterations 0

mixingQuality = 0.703045
Time = 3.12s

ExecutionTime = 44.0823 s  ClockTime = 44 s

scalarTransport write:
DILUPBiCGStab:  Solving for C, Initial residual = 9.97417e-07, Final residual = 9.97417e-07, No Iterations 0

mixingQuality = 0.703045
Time = 3.13s

ExecutionTime = 44.1204 s  ClockTime = 44 s

scalarTransport write:
DILUPBiCGStab:  Solving for C, Initial residual = 9.97417e-07, Final residual = 9.97417e-07, No Iterations 0

mixingQuality = 0.703045
Time = 3.14s

ExecutionTime = 44.1585 s  ClockTime = 44 s

scalarTransport write:
DILUPBiCGStab:  Solving for C, Initial residual = 9.97417e-07, Final residual = 9.97417e-07, No Iterations 0

mixingQuality = 0.703045
Time = 3.15s

ExecutionTime = 44.1966 s  ClockTime = 44 s

scalarTransport write:
DILUPBiCGStab:  Solving for C, Initial residual = 9.97417e-07, Final residual = 9.97417e-07, No Iterations 0

mixingQuality = 0.703045
Time = 3.16s

ExecutionTime = 44.2346 s  ClockTime = 44 s

scalarTransport write:
DILUPBiCGStab:  Solving for C, Initial residual = 9.97417e-07, Final residual = 9.97417e-07, No Iterations 0

mixingQuality = 0.703045
Time = 3.17s

ExecutionTime = 44.2728 s  ClockTime = 45 s

scalarTransport write:
DILUPBiCGStab:  Solving for C, Initial residual = 9.97417e-07, Final residual = 9.97417e-07, No Iterations 0

mixingQuality = 0.703045
Time = 3.18s

ExecutionTime = 44.3107 s  ClockTime = 45 s

scalarTransport write:
DILUPBiCGStab:  Solving for C, Initial residual = 9.97417e-07, Final residual = 9.97417e-07, No Iterations 0

mixingQuality = 0.703045
Time = 3.19s

ExecutionTime = 44.3487 s  ClockTime = 45 s

scalarTransport write:
DILUPBiCGStab:  Solving for C, Initial residual = 9.97417e-07, Final residual = 9.97417e-07, No Iterations 0

mixingQuality = 0.703045
Time = 3.2s

ExecutionTime = 44.3868 s  ClockTime = 45 s

scalarTransport write:
DILUPBiCGStab:  Solving for C, Initial residual = 9.97417e-07, Final residual = 9.97417e-07, No Iterations 0

mixingQuality = 0.703045
Time = 3.21s

ExecutionTime = 44.4248 s  ClockTime = 45 s

scalarTransport write:
DILUPBiCGStab:  Solving for C, Initial residual = 9.97417e-07, Final residual = 9.97417e-07, No Iterations 0

mixingQuality = 0.703045
Time = 3.22s

ExecutionTime = 44.4629 s  ClockTime = 45 s

scalarTransport write:
DILUPBiCGStab:  Solving for C, Initial residual = 9.97417e-07, Final residual = 9.97417e-07, No Iterations 0

mixingQuality = 0.703045
Time = 3.23s

ExecutionTime = 44.501 s  ClockTime = 45 s

scalarTransport write:
DILUPBiCGStab:  Solving for C, Initial residual = 9.97417e-07, Final residual = 9.97417e-07, No Iterations 0

mixingQuality = 0.703045
Time = 3.24s

ExecutionTime = 44.5391 s  ClockTime = 45 s

scalarTransport write:
DILUPBiCGStab:  Solving for C, Initial residual = 9.97417e-07, Final residual = 9.97417e-07, No Iterations 0

mixingQuality = 0.703045
Time = 3.25s

ExecutionTime = 44.5772 s  ClockTime = 45 s

scalarTransport write:
DILUPBiCGStab:  Solving for C, Initial residual = 9.97417e-07, Final residual = 9.97417e-07, No Iterations 0

mixingQuality = 0.703045
Time = 3.26s

ExecutionTime = 44.6154 s  ClockTime = 45 s

scalarTransport write:
DILUPBiCGStab:  Solving for C, Initial residual = 9.97417e-07, Final residual = 9.97417e-07, No Iterations 0

mixingQuality = 0.703045
Time = 3.27s

ExecutionTime = 44.6534 s  ClockTime = 45 s

scalarTransport write:
DILUPBiCGStab:  Solving for C, Initial residual = 9.97417e-07, Final residual = 9.97417e-07, No Iterations 0

mixingQuality = 0.703045
Time = 3.28s

ExecutionTime = 44.6915 s  ClockTime = 45 s

scalarTransport write:
DILUPBiCGStab:  Solving for C, Initial residual = 9.97417e-07, Final residual = 9.97417e-07, No Iterations 0

mixingQuality = 0.703045
Time = 3.29s

ExecutionTime = 44.7295 s  ClockTime = 45 s

scalarTransport write:
DILUPBiCGStab:  Solving for C, Initial residual = 9.97417e-07, Final residual = 9.97417e-07, No Iterations 0

mixingQuality = 0.703045
Time = 3.3s

ExecutionTime = 44.7675 s  ClockTime = 45 s

scalarTransport write:
DILUPBiCGStab:  Solving for C, Initial residual = 9.97417e-07, Final residual = 9.97417e-07, No Iterations 0

mixingQuality = 0.703045
Time = 3.31s

ExecutionTime = 44.8057 s  ClockTime = 45 s

scalarTransport write:
DILUPBiCGStab:  Solving for C, Initial residual = 9.97417e-07, Final residual = 9.97417e-07, No Iterations 0

mixingQuality = 0.703045
Time = 3.32s

ExecutionTime = 44.8438 s  ClockTime = 45 s

scalarTransport write:
DILUPBiCGStab:  Solving for C, Initial residual = 9.97417e-07, Final residual = 9.97417e-07, No Iterations 0

mixingQuality = 0.703045
Time = 3.33s

ExecutionTime = 44.8819 s  ClockTime = 45 s

scalarTransport write:
DILUPBiCGStab:  Solving for C, Initial residual = 9.97417e-07, Final residual = 9.97417e-07, No Iterations 0

mixingQuality = 0.703045
Time = 3.34s

ExecutionTime = 44.9201 s  ClockTime = 45 s

scalarTransport write:
DILUPBiCGStab:  Solving for C, Initial residual = 9.97417e-07, Final residual = 9.97417e-07, No Iterations 0

mixingQuality = 0.703045
Time = 3.35s

ExecutionTime = 44.9584 s  ClockTime = 45 s

scalarTransport write:
DILUPBiCGStab:  Solving for C, Initial residual = 9.97417e-07, Final residual = 9.97417e-07, No Iterations 0

mixingQuality = 0.703045
Time = 3.36s

ExecutionTime = 44.9965 s  ClockTime = 45 s

scalarTransport write:
DILUPBiCGStab:  Solving for C, Initial residual = 9.97417e-07, Final residual = 9.97417e-07, No Iterations 0

mixingQuality = 0.703045
Time = 3.37s

ExecutionTime = 45.0347 s  ClockTime = 45 s

scalarTransport write:
DILUPBiCGStab:  Solving for C, Initial residual = 9.97417e-07, Final residual = 9.97417e-07, No Iterations 0

mixingQuality = 0.703045
Time = 3.38s

ExecutionTime = 45.0728 s  ClockTime = 45 s

scalarTransport write:
DILUPBiCGStab:  Solving for C, Initial residual = 9.97417e-07, Final residual = 9.97417e-07, No Iterations 0

mixingQuality = 0.703045
Time = 3.39s

ExecutionTime = 45.1111 s  ClockTime = 45 s

scalarTransport write:
DILUPBiCGStab:  Solving for C, Initial residual = 9.97417e-07, Final residual = 9.97417e-07, No Iterations 0

mixingQuality = 0.703045
Time = 3.4s

ExecutionTime = 45.1491 s  ClockTime = 45 s

scalarTransport write:
DILUPBiCGStab:  Solving for C, Initial residual = 9.97417e-07, Final residual = 9.97417e-07, No Iterations 0

mixingQuality = 0.703045
Time = 3.41s

ExecutionTime = 45.1872 s  ClockTime = 45 s

scalarTransport write:
DILUPBiCGStab:  Solving for C, Initial residual = 9.97417e-07, Final residual = 9.97417e-07, No Iterations 0

mixingQuality = 0.703045
Time = 3.42s

ExecutionTime = 45.2252 s  ClockTime = 45 s

scalarTransport write:
DILUPBiCGStab:  Solving for C, Initial residual = 9.97417e-07, Final residual = 9.97417e-07, No Iterations 0

mixingQuality = 0.703045
Time = 3.43s

ExecutionTime = 45.2633 s  ClockTime = 46 s

scalarTransport write:
DILUPBiCGStab:  Solving for C, Initial residual = 9.97417e-07, Final residual = 9.97417e-07, No Iterations 0

mixingQuality = 0.703045
Time = 3.44s

ExecutionTime = 45.3013 s  ClockTime = 46 s

scalarTransport write:
DILUPBiCGStab:  Solving for C, Initial residual = 9.97417e-07, Final residual = 9.97417e-07, No Iterations 0

mixingQuality = 0.703045
Time = 3.45s

ExecutionTime = 45.3393 s  ClockTime = 46 s

scalarTransport write:
DILUPBiCGStab:  Solving for C, Initial residual = 9.97417e-07, Final residual = 9.97417e-07, No Iterations 0

mixingQuality = 0.703045
Time = 3.46s

ExecutionTime = 45.3776 s  ClockTime = 46 s

scalarTransport write:
DILUPBiCGStab:  Solving for C, Initial residual = 9.97417e-07, Final residual = 9.97417e-07, No Iterations 0

mixingQuality = 0.703045
Time = 3.47s

ExecutionTime = 45.4157 s  ClockTime = 46 s

scalarTransport write:
DILUPBiCGStab:  Solving for C, Initial residual = 9.97417e-07, Final residual = 9.97417e-07, No Iterations 0

mixingQuality = 0.703045
Time = 3.48s

ExecutionTime = 45.4537 s  ClockTime = 46 s

scalarTransport write:
DILUPBiCGStab:  Solving for C, Initial residual = 9.97417e-07, Final residual = 9.97417e-07, No Iterations 0

mixingQuality = 0.703045
Time = 3.49s

ExecutionTime = 45.4917 s  ClockTime = 46 s

scalarTransport write:
DILUPBiCGStab:  Solving for C, Initial residual = 9.97417e-07, Final residual = 9.97417e-07, No Iterations 0

mixingQuality = 0.703045
Time = 3.5s

ExecutionTime = 45.5299 s  ClockTime = 46 s

scalarTransport write:
DILUPBiCGStab:  Solving for C, Initial residual = 9.97417e-07, Final residual = 9.97417e-07, No Iterations 0

mixingQuality = 0.703045
Time = 3.51s

ExecutionTime = 45.5681 s  ClockTime = 46 s

scalarTransport write:
DILUPBiCGStab:  Solving for C, Initial residual = 9.97417e-07, Final residual = 9.97417e-07, No Iterations 0

mixingQuality = 0.703045
Time = 3.52s

ExecutionTime = 45.6062 s  ClockTime = 46 s

scalarTransport write:
DILUPBiCGStab:  Solving for C, Initial residual = 9.97417e-07, Final residual = 9.97417e-07, No Iterations 0

mixingQuality = 0.703045
Time = 3.53s

ExecutionTime = 45.6443 s  ClockTime = 46 s

scalarTransport write:
DILUPBiCGStab:  Solving for C, Initial residual = 9.97417e-07, Final residual = 9.97417e-07, No Iterations 0

mixingQuality = 0.703045
Time = 3.54s

ExecutionTime = 45.6825 s  ClockTime = 46 s

scalarTransport write:
DILUPBiCGStab:  Solving for C, Initial residual = 9.97417e-07, Final residual = 9.97417e-07, No Iterations 0

mixingQuality = 0.703045
Time = 3.55s

ExecutionTime = 45.7207 s  ClockTime = 46 s

scalarTransport write:
DILUPBiCGStab:  Solving for C, Initial residual = 9.97417e-07, Final residual = 9.97417e-07, No Iterations 0

mixingQuality = 0.703045
Time = 3.56s

ExecutionTime = 45.7588 s  ClockTime = 46 s

scalarTransport write:
DILUPBiCGStab:  Solving for C, Initial residual = 9.97417e-07, Final residual = 9.97417e-07, No Iterations 0

mixingQuality = 0.703045
Time = 3.57s

ExecutionTime = 45.7969 s  ClockTime = 46 s

scalarTransport write:
DILUPBiCGStab:  Solving for C, Initial residual = 9.97417e-07, Final residual = 9.97417e-07, No Iterations 0

mixingQuality = 0.703045
Time = 3.58s

ExecutionTime = 45.835 s  ClockTime = 46 s

scalarTransport write:
DILUPBiCGStab:  Solving for C, Initial residual = 9.97417e-07, Final residual = 9.97417e-07, No Iterations 0

mixingQuality = 0.703045
Time = 3.59s

ExecutionTime = 45.8731 s  ClockTime = 46 s

scalarTransport write:
DILUPBiCGStab:  Solving for C, Initial residual = 9.97417e-07, Final residual = 9.97417e-07, No Iterations 0

mixingQuality = 0.703045
Time = 3.6s

ExecutionTime = 45.9112 s  ClockTime = 46 s

scalarTransport write:
DILUPBiCGStab:  Solving for C, Initial residual = 9.97417e-07, Final residual = 9.97417e-07, No Iterations 0

mixingQuality = 0.703045
Time = 3.61s

ExecutionTime = 45.9494 s  ClockTime = 46 s

scalarTransport write:
DILUPBiCGStab:  Solving for C, Initial residual = 9.97417e-07, Final residual = 9.97417e-07, No Iterations 0

mixingQuality = 0.703045
Time = 3.62s

ExecutionTime = 45.9878 s  ClockTime = 46 s

scalarTransport write:
[...]

mixingQuality = 0.703045
Time = 4.09s

ExecutionTime = 47.7791 s  ClockTime = 48 s

scalarTransport write:
DILUPBiCGStab:  Solving for C, Initial residual = 9.97417e-07, Final residual = 9.97417e-07, No Iterations 0

mixingQuality = 0.703045
Time = 4.1s

ExecutionTime = 47.8173 s  ClockTime = 48 s

scalarTransport write:
DILUPBiCGStab:  Solving for C, Initial residual = 9.97417e-07, Final residual = 9.97417e-07, No Iterations 0

mixingQuality = 0.703045
Time = 4.11s

ExecutionTime = 47.8555 s  ClockTime = 48 s

scalarTransport write:
DILUPBiCGStab:  Solving for C, Initial residual = 9.97417e-07, Final residual = 9.97417e-07, No Iterations 0

mixingQuality = 0.703045
Time = 4.12s

ExecutionTime = 47.8936 s  ClockTime = 48 s

scalarTransport write:
DILUPBiCGStab:  Solving for C, Initial residual = 9.97417e-07, Final residual = 9.97417e-07, No Iterations 0

mixingQuality = 0.703045
Time = 4.13s

ExecutionTime = 47.9318 s  ClockTime = 48 s

scalarTransport write:
DILUPBiCGStab:  Solving for C, Initial residual = 9.97417e-07, Final residual = 9.97417e-07, No Iterations 0

mixingQuality = 0.703045
Time = 4.14s

ExecutionTime = 47.9701 s  ClockTime = 48 s

scalarTransport write:
DILUPBiCGStab:  Solving for C, Initial residual = 9.97417e-07, Final residual = 9.97417e-07, No Iterations 0

mixingQuality = 0.703045
Time = 4.15s

ExecutionTime = 48.0085 s  ClockTime = 48 s

scalarTransport write:
DILUPBiCGStab:  Solving for C, Initial residual = 9.97417e-07, Final residual = 9.97417e-07, No Iterations 0

mixingQuality = 0.703045
Time = 4.16s

ExecutionTime = 48.0466 s  ClockTime = 48 s

scalarTransport write:
DILUPBiCGStab:  Solving for C, Initial residual = 9.97417e-07, Final residual = 9.97417e-07, No Iterations 0

mixingQuality = 0.703045
Time = 4.17s

ExecutionTime = 48.0846 s  ClockTime = 48 s

scalarTransport write:
DILUPBiCGStab:  Solving for C, Initial residual = 9.97417e-07, Final residual = 9.97417e-07, No Iterations 0

mixingQuality = 0.703045
Time = 4.18s

ExecutionTime = 48.1226 s  ClockTime = 48 s

scalarTransport write:
DILUPBiCGStab:  Solving for C, Initial residual = 9.97417e-07, Final residual = 9.97417e-07, No Iterations 0

mixingQuality = 0.703045
Time = 4.19s

ExecutionTime = 48.1606 s  ClockTime = 48 s

scalarTransport write:
DILUPBiCGStab:  Solving for C, Initial residual = 9.97417e-07, Final residual = 9.97417e-07, No Iterations 0

mixingQuality = 0.703045
Time = 4.2s

ExecutionTime = 48.1986 s  ClockTime = 48 s

scalarTransport write:
DILUPBiCGStab:  Solving for C, Initial residual = 9.97417e-07, Final residual = 9.97417e-07, No Iterations 0

mixingQuality = 0.703045
Time = 4.21s

ExecutionTime = 48.2366 s  ClockTime = 49 s

scalarTransport write:
DILUPBiCGStab:  Solving for C, Initial residual = 9.97417e-07, Final residual = 9.97417e-07, No Iterations 0

mixingQuality = 0.703045
Time = 4.22s

ExecutionTime = 48.2747 s  ClockTime = 49 s

scalarTransport write:
DILUPBiCGStab:  Solving for C, Initial residual = 9.97417e-07, Final residual = 9.97417e-07, No Iterations 0

mixingQuality = 0.703045
Time = 4.23s

ExecutionTime = 48.3128 s  ClockTime = 49 s

scalarTransport write:
DILUPBiCGStab:  Solving for C, Initial residual = 9.97417e-07, Final residual = 9.97417e-07, No Iterations 0

mixingQuality = 0.703045
Time = 4.24s

ExecutionTime = 48.3509 s  ClockTime = 49 s

scalarTransport write:
DILUPBiCGStab:  Solving for C, Initial residual = 9.97417e-07, Final residual = 9.97417e-07, No Iterations 0

mixingQuality = 0.703045
Time = 4.25s

ExecutionTime = 48.3891 s  ClockTime = 49 s

scalarTransport write:
DILUPBiCGStab:  Solving for C, Initial residual = 9.97417e-07, Final residual = 9.97417e-07, No Iterations 0

mixingQuality = 0.703045
Time = 4.26s

ExecutionTime = 48.4271 s  ClockTime = 49 s

scalarTransport write:
DILUPBiCGStab:  Solving for C, Initial residual = 9.97417e-07, Final residual = 9.97417e-07, No Iterations 0

mixingQuality = 0.703045
Time = 4.27s

ExecutionTime = 48.4652 s  ClockTime = 49 s

scalarTransport write:
DILUPBiCGStab:  Solving for C, Initial residual = 9.97417e-07, Final residual = 9.97417e-07, No Iterations 0

mixingQuality = 0.703045
Time = 4.28s

ExecutionTime = 48.5036 s  ClockTime = 49 s

scalarTransport write:
DILUPBiCGStab:  Solving for C, Initial residual = 9.97417e-07, Final residual = 9.97417e-07, No Iterations 0

mixingQuality = 0.703045
Time = 4.29s

ExecutionTime = 48.5419 s  ClockTime = 49 s

scalarTransport write:
DILUPBiCGStab:  Solving for C, Initial residual = 9.97417e-07, Final residual = 9.97417e-07, No Iterations 0

mixingQuality = 0.703045
Time = 4.3s

ExecutionTime = 48.5801 s  ClockTime = 49 s

scalarTransport write:
DILUPBiCGStab:  Solving for C, Initial residual = 9.97417e-07, Final residual = 9.97417e-07, No Iterations 0

mixingQuality = 0.703045
Time = 4.31s

ExecutionTime = 48.6182 s  ClockTime = 49 s

scalarTransport write:
DILUPBiCGStab:  Solving for C, Initial residual = 9.97417e-07, Final residual = 9.97417e-07, No Iterations 0

mixingQuality = 0.703045
Time = 4.32s

ExecutionTime = 48.6564 s  ClockTime = 49 s

scalarTransport write:
DILUPBiCGStab:  Solving for C, Initial residual = 9.97417e-07, Final residual = 9.97417e-07, No Iterations 0

mixingQuality = 0.703045
Time = 4.33s

ExecutionTime = 48.6945 s  ClockTime = 49 s

scalarTransport write:
DILUPBiCGStab:  Solving for C, Initial residual = 9.97417e-07, Final residual = 9.97417e-07, No Iterations 0

mixingQuality = 0.703045
Time = 4.34s

ExecutionTime = 48.7327 s  ClockTime = 49 s

scalarTransport write:
DILUPBiCGStab:  Solving for C, Initial residual = 9.97417e-07, Final residual = 9.97417e-07, No Iterations 0

mixingQuality = 0.703045
Time = 4.35s

ExecutionTime = 48.7708 s  ClockTime = 49 s

scalarTransport write:
DILUPBiCGStab:  Solving for C, Initial residual = 9.97417e-07, Final residual = 9.97417e-07, No Iterations 0

mixingQuality = 0.703045
Time = 4.36s

ExecutionTime = 48.8089 s  ClockTime = 49 s

scalarTransport write:
DILUPBiCGStab:  Solving for C, Initial residual = 9.97417e-07, Final residual = 9.97417e-07, No Iterations 0

mixingQuality = 0.703045
Time = 4.37s

ExecutionTime = 48.847 s  ClockTime = 49 s

scalarTransport write:
DILUPBiCGStab:  Solving for C, Initial residual = 9.97417e-07, Final residual = 9.97417e-07, No Iterations 0

mixingQuality = 0.703045
Time = 4.38s

ExecutionTime = 48.8851 s  ClockTime = 49 s

scalarTransport write:
DILUPBiCGStab:  Solving for C, Initial residual = 9.97417e-07, Final residual = 9.97417e-07, No Iterations 0

mixingQuality = 0.703045
Time = 4.39s

ExecutionTime = 48.9232 s  ClockTime = 49 s

scalarTransport write:
DILUPBiCGStab:  Solving for C, Initial residual = 9.97417e-07, Final residual = 9.97417e-07, No Iterations 0

mixingQuality = 0.703045
Time = 4.4s

ExecutionTime = 48.9614 s  ClockTime = 49 s

scalarTransport write:
DILUPBiCGStab:  Solving for C, Initial residual = 9.97417e-07, Final residual = 9.97417e-07, No Iterations 0

mixingQuality = 0.703045
Time = 4.41s

ExecutionTime = 48.9994 s  ClockTime = 49 s

scalarTransport write:
DILUPBiCGStab:  Solving for C, Initial residual = 9.97417e-07, Final residual = 9.97417e-07, No Iterations 0

mixingQuality = 0.703045
Time = 4.42s

ExecutionTime = 49.0375 s  ClockTime = 49 s

scalarTransport write:
DILUPBiCGStab:  Solving for C, Initial residual = 9.97417e-07, Final residual = 9.97417e-07, No Iterations 0

mixingQuality = 0.703045
Time = 4.43s

ExecutionTime = 49.0756 s  ClockTime = 49 s

scalarTransport write:
DILUPBiCGStab:  Solving for C, Initial residual = 9.97417e-07, Final residual = 9.97417e-07, No Iterations 0

mixingQuality = 0.703045
Time = 4.44s

ExecutionTime = 49.1136 s  ClockTime = 49 s

scalarTransport write:
DILUPBiCGStab:  Solving for C, Initial residual = 9.97417e-07, Final residual = 9.97417e-07, No Iterations 0

mixingQuality = 0.703045
Time = 4.45s

ExecutionTime = 49.1519 s  ClockTime = 49 s

scalarTransport write:
DILUPBiCGStab:  Solving for C, Initial residual = 9.97417e-07, Final residual = 9.97417e-07, No Iterations 0

mixingQuality = 0.703045
Time = 4.46s

ExecutionTime = 49.1901 s  ClockTime = 49 s

scalarTransport write:
DILUPBiCGStab:  Solving for C, Initial residual = 9.97417e-07, Final residual = 9.97417e-07, No Iterations 0

mixingQuality = 0.703045
Time = 4.47s

ExecutionTime = 49.2283 s  ClockTime = 50 s

scalarTransport write:
DILUPBiCGStab:  Solving for C, Initial residual = 9.97417e-07, Final residual = 9.97417e-07, No Iterations 0

mixingQuality = 0.703045
Time = 4.48s

ExecutionTime = 49.2666 s  ClockTime = 50 s

scalarTransport write:
DILUPBiCGStab:  Solving for C, Initial residual = 9.97417e-07, Final residual = 9.97417e-07, No Iterations 0

mixingQuality = 0.703045
Time = 4.49s

ExecutionTime = 49.3047 s  ClockTime = 50 s

scalarTransport write:
DILUPBiCGStab:  Solving for C, Initial residual = 9.97417e-07, Final residual = 9.97417e-07, No Iterations 0

mixingQuality = 0.703045
Time = 4.5s

ExecutionTime = 49.3431 s  ClockTime = 50 s

scalarTransport write:
DILUPBiCGStab:  Solving for C, Initial residual = 9.97417e-07, Final residual = 9.97417e-07, No Iterations 0

mixingQuality = 0.703045
Time = 4.51s

ExecutionTime = 49.3812 s  ClockTime = 50 s

scalarTransport write:
DILUPBiCGStab:  Solving for C, Initial residual = 9.97417e-07, Final residual = 9.97417e-07, No Iterations 0

mixingQuality = 0.703045
Time = 4.52s

ExecutionTime = 49.4194 s  ClockTime = 50 s

scalarTransport write:
DILUPBiCGStab:  Solving for C, Initial residual = 9.97417e-07, Final residual = 9.97417e-07, No Iterations 0

mixingQuality = 0.703045
Time = 4.53s

ExecutionTime = 49.4576 s  ClockTime = 50 s

scalarTransport write:
DILUPBiCGStab:  Solving for C, Initial residual = 9.97417e-07, Final residual = 9.97417e-07, No Iterations 0

mixingQuality = 0.703045
Time = 4.54s

ExecutionTime = 49.4957 s  ClockTime = 50 s

scalarTransport write:
DILUPBiCGStab:  Solving for C, Initial residual = 9.97417e-07, Final residual = 9.97417e-07, No Iterations 0

mixingQuality = 0.703045
Time = 4.55s

ExecutionTime = 49.5339 s  ClockTime = 50 s

scalarTransport write:
DILUPBiCGStab:  Solving for C, Initial residual = 9.97417e-07, Final residual = 9.97417e-07, No Iterations 0

mixingQuality = 0.703045
Time = 4.56s

ExecutionTime = 49.5721 s  ClockTime = 50 s

scalarTransport write:
DILUPBiCGStab:  Solving for C, Initial residual = 9.97417e-07, Final residual = 9.97417e-07, No Iterations 0

mixingQuality = 0.703045
Time = 4.57s

ExecutionTime = 49.6103 s  ClockTime = 50 s

scalarTransport write:
DILUPBiCGStab:  Solving for C, Initial residual = 9.97417e-07, Final residual = 9.97417e-07, No Iterations 0

mixingQuality = 0.703045
Time = 4.58s

ExecutionTime = 49.6486 s  ClockTime = 50 s

scalarTransport write:
DILUPBiCGStab:  Solving for C, Initial residual = 9.97417e-07, Final residual = 9.97417e-07, No Iterations 0

mixingQuality = 0.703045
Time = 4.59s

ExecutionTime = 49.6868 s  ClockTime = 50 s

scalarTransport write:
DILUPBiCGStab:  Solving for C, Initial residual = 9.97417e-07, Final residual = 9.97417e-07, No Iterations 0

mixingQuality = 0.703045
Time = 4.6s

ExecutionTime = 49.725 s  ClockTime = 50 s

scalarTransport write:
DILUPBiCGStab:  Solving for C, Initial residual = 9.97417e-07, Final residual = 9.97417e-07, No Iterations 0

mixingQuality = 0.703045
Time = 4.61s

ExecutionTime = 49.7631 s  ClockTime = 50 s

scalarTransport write:
DILUPBiCGStab:  Solving for C, Initial residual = 9.97417e-07, Final residual = 9.97417e-07, No Iterations 0

mixingQuality = 0.703045
Time = 4.62s

ExecutionTime = 49.8013 s  ClockTime = 50 s

scalarTransport write:
DILUPBiCGStab:  Solving for C, Initial residual = 9.97417e-07, Final residual = 9.97417e-07, No Iterations 0

mixingQuality = 0.703045
Time = 4.63s

ExecutionTime = 49.8395 s  ClockTime = 50 s

scalarTransport write:
DILUPBiCGStab:  Solving for C, Initial residual = 9.97417e-07, Final residual = 9.97417e-07, No Iterations 0

mixingQuality = 0.703045
Time = 4.64s

ExecutionTime = 49.8776 s  ClockTime = 50 s

scalarTransport write:
DILUPBiCGStab:  Solving for C, Initial residual = 9.97417e-07, Final residual = 9.97417e-07, No Iterations 0

mixingQuality = 0.703045
Time = 4.65s

ExecutionTime = 49.9158 s  ClockTime = 50 s

scalarTransport write:
DILUPBiCGStab:  Solving for C, Initial residual = 9.97417e-07, Final residual = 9.97417e-07, No Iterations 0

mixingQuality = 0.703045
Time = 4.66s

ExecutionTime = 49.9539 s  ClockTime = 50 s

scalarTransport write:
DILUPBiCGStab:  Solving for C, Initial residual = 9.97417e-07, Final residual = 9.97417e-07, No Iterations 0

mixingQuality = 0.703045
Time = 4.67s

ExecutionTime = 49.992 s  ClockTime = 50 s

scalarTransport write:
DILUPBiCGStab:  Solving for C, Initial residual = 9.97417e-07, Final residual = 9.97417e-07, No Iterations 0

mixingQuality = 0.703045
Time = 4.68s

ExecutionTime = 50.03 s  ClockTime = 50 s

scalarTransport write:
DILUPBiCGStab:  Solving for C, Initial residual = 9.97417e-07, Final residual = 9.97417e-07, No Iterations 0

mixingQuality = 0.703045
Time = 4.69s

ExecutionTime = 50.068 s  ClockTime = 50 s

scalarTransport write:
DILUPBiCGStab:  Solving for C, Initial residual = 9.97417e-07, Final residual = 9.97417e-07, No Iterations 0

mixingQuality = 0.703045
Time = 4.7s

ExecutionTime = 50.106 s  ClockTime = 50 s

scalarTransport write:
DILUPBiCGStab:  Solving for C, Initial residual = 9.97417e-07, Final residual = 9.97417e-07, No Iterations 0

mixingQuality = 0.703045
Time = 4.71s

ExecutionTime = 50.1441 s  ClockTime = 50 s

scalarTransport write:
DILUPBiCGStab:  Solving for C, Initial residual = 9.97417e-07, Final residual = 9.97417e-07, No Iterations 0

mixingQuality = 0.703045
Time = 4.72s

ExecutionTime = 50.1822 s  ClockTime = 50 s

scalarTransport write:
DILUPBiCGStab:  Solving for C, Initial residual = 9.97417e-07, Final residual = 9.97417e-07, No Iterations 0

mixingQuality = 0.703045
Time = 4.73s

ExecutionTime = 50.2203 s  ClockTime = 50 s

scalarTransport write:
DILUPBiCGStab:  Solving for C, Initial residual = 9.97417e-07, Final residual = 9.97417e-07, No Iterations 0

mixingQuality = 0.703045
Time = 4.74s

ExecutionTime = 50.2585 s  ClockTime = 51 s

scalarTransport write:
DILUPBiCGStab:  Solving for C, Initial residual = 9.97417e-07, Final residual = 9.97417e-07, No Iterations 0

mixingQuality = 0.703045
Time = 4.75s

ExecutionTime = 50.2968 s  ClockTime = 51 s

scalarTransport write:
DILUPBiCGStab:  Solving for C, Initial residual = 9.97417e-07, Final residual = 9.97417e-07, No Iterations 0

mixingQuality = 0.703045
Time = 4.76s

ExecutionTime = 50.335 s  ClockTime = 51 s

scalarTransport write:
DILUPBiCGStab:  Solving for C, Initial residual = 9.97417e-07, Final residual = 9.97417e-07, No Iterations 0

mixingQuality = 0.703045
Time = 4.77s

ExecutionTime = 50.3732 s  ClockTime = 51 s

scalarTransport write:
DILUPBiCGStab:  Solving for C, Initial residual = 9.97417e-07, Final residual = 9.97417e-07, No Iterations 0

mixingQuality = 0.703045
Time = 4.78s

ExecutionTime = 50.4115 s  ClockTime = 51 s

scalarTransport write:
DILUPBiCGStab:  Solving for C, Initial residual = 9.97417e-07, Final residual = 9.97417e-07, No Iterations 0

mixingQuality = 0.703045
Time = 4.79s

ExecutionTime = 50.45 s  ClockTime = 51 s

scalarTransport write:
DILUPBiCGStab:  Solving for C, Initial residual = 9.97417e-07, Final residual = 9.97417e-07, No Iterations 0

mixingQuality = 0.703045
Time = 4.8s

ExecutionTime = 50.4883 s  ClockTime = 51 s

scalarTransport write:
DILUPBiCGStab:  Solving for C, Initial residual = 9.97417e-07, Final residual = 9.97417e-07, No Iterations 0

mixingQuality = 0.703045
Time = 4.81s

ExecutionTime = 50.5267 s  ClockTime = 51 s

scalarTransport write:
DILUPBiCGStab:  Solving for C, Initial residual = 9.97417e-07, Final residual = 9.97417e-07, No Iterations 0

mixingQuality = 0.703045
Time = 4.82s

ExecutionTime = 50.5651 s  ClockTime = 51 s

scalarTransport write:
DILUPBiCGStab:  Solving for C, Initial residual = 9.97417e-07, Final residual = 9.97417e-07, No Iterations 0

mixingQuality = 0.703045
Time = 4.83s

ExecutionTime = 50.6034 s  ClockTime = 51 s

scalarTransport write:
DILUPBiCGStab:  Solving for C, Initial residual = 9.97417e-07, Final residual = 9.97417e-07, No Iterations 0

mixingQuality = 0.703045
Time = 4.84s

ExecutionTime = 50.6416 s  ClockTime = 51 s

scalarTransport write:
DILUPBiCGStab:  Solving for C, Initial residual = 9.97417e-07, Final residual = 9.97417e-07, No Iterations 0

mixingQuality = 0.703045
Time = 4.85s

ExecutionTime = 50.68 s  ClockTime = 51 s

scalarTransport write:
DILUPBiCGStab:  Solving for C, Initial residual = 9.97417e-07, Final residual = 9.97417e-07, No Iterations 0

mixingQuality = 0.703045
Time = 4.86s

ExecutionTime = 50.7182 s  ClockTime = 51 s

scalarTransport write:
DILUPBiCGStab:  Solving for C, Initial residual = 9.97417e-07, Final residual = 9.97417e-07, No Iterations 0

mixingQuality = 0.703045
Time = 4.87s

ExecutionTime = 50.7566 s  ClockTime = 51 s

scalarTransport write:
DILUPBiCGStab:  Solving for C, Initial residual = 9.97417e-07, Final residual = 9.97417e-07, No Iterations 0

mixingQuality = 0.703045
Time = 4.88s

ExecutionTime = 50.795 s  ClockTime = 51 s

scalarTransport write:
DILUPBiCGStab:  Solving for C, Initial residual = 9.97417e-07, Final residual = 9.97417e-07, No Iterations 0

mixingQuality = 0.703045
Time = 4.89s

ExecutionTime = 50.8333 s  ClockTime = 51 s

scalarTransport write:
DILUPBiCGStab:  Solving for C, Initial residual = 9.97417e-07, Final residual = 9.97417e-07, No Iterations 0

mixingQuality = 0.703045
Time = 4.9s

ExecutionTime = 50.8715 s  ClockTime = 51 s

scalarTransport write:
DILUPBiCGStab:  Solving for C, Initial residual = 9.97417e-07, Final residual = 9.97417e-07, No Iterations 0

mixingQuality = 0.703045
Time = 4.91s

ExecutionTime = 50.9101 s  ClockTime = 51 s

scalarTransport write:
DILUPBiCGStab:  Solving for C, Initial residual = 9.97417e-07, Final residual = 9.97417e-07, No Iterations 0

mixingQuality = 0.703045
Time = 4.92s

ExecutionTime = 50.9483 s  ClockTime = 51 s

scalarTransport write:
DILUPBiCGStab:  Solving for C, Initial residual = 9.97417e-07, Final residual = 9.97417e-07, No Iterations 0

mixingQuality = 0.703045
Time = 4.93s

ExecutionTime = 50.9866 s  ClockTime = 51 s

scalarTransport write:
DILUPBiCGStab:  Solving for C, Initial residual = 9.97417e-07, Final residual = 9.97417e-07, No Iterations 0

mixingQuality = 0.703045
Time = 4.94s

ExecutionTime = 51.0248 s  ClockTime = 51 s

scalarTransport write:
DILUPBiCGStab:  Solving for C, Initial residual = 9.97417e-07, Final residual = 9.97417e-07, No Iterations 0

mixingQuality = 0.703045
Time = 4.95s

ExecutionTime = 51.0631 s  ClockTime = 51 s

scalarTransport write:
DILUPBiCGStab:  Solving for C, Initial residual = 9.97417e-07, Final residual = 9.97417e-07, No Iterations 0

mixingQuality = 0.703045
Time = 4.96s

ExecutionTime = 51.1014 s  ClockTime = 51 s

scalarTransport write:
DILUPBiCGStab:  Solving for C, Initial residual = 9.97417e-07, Final residual = 9.97417e-07, No Iterations 0

mixingQuality = 0.703045
Time = 4.97s

ExecutionTime = 51.1396 s  ClockTime = 51 s

scalarTransport write:
DILUPBiCGStab:  Solving for C, Initial residual = 9.97417e-07, Final residual = 9.97417e-07, No Iterations 0

mixingQuality = 0.703045
Time = 4.98s

ExecutionTime = 51.1778 s  ClockTime = 51 s

scalarTransport write:
DILUPBiCGStab:  Solving for C, Initial residual = 9.97417e-07, Final residual = 9.97417e-07, No Iterations 0

mixingQuality = 0.703045
Time = 4.99s

ExecutionTime = 51.2161 s  ClockTime = 51 s

scalarTransport write:
DILUPBiCGStab:  Solving for C, Initial residual = 9.97417e-07, Final residual = 9.97417e-07, No Iterations 0

mixingQuality = 0.703045
Time = 5s

ExecutionTime = 51.3639 s  ClockTime = 52 s

scalarTransport write:
DILUPBiCGStab:  Solving for C, Initial residual = 9.97417e-07, Final residual = 9.97417e-07, No Iterations 0

mixingQuality = 0.703045
End

