nohup: ignoring input
/*---------------------------------------------------------------------------*\
  =========                 |
  \\      /  F ield         | OpenFOAM: The Open Source CFD Toolbox
   \\    /   O peration     | Website:  https://openfoam.org
    \\  /    A nd           | Version:  11
     \\/     M anipulation  |
\*---------------------------------------------------------------------------*/
Build  : 11-c219200fdb8b
Exec   : foamRun
Date   : May 27 2024
Time   : 09:22:39
Host   : "cda-server-4"
PID    : 76349
I/O    : uncollated
Case   : /home/takken/mmft-CFD-cases/DiffusiveMixing/grid-mixer/D9.0/concentrationField
nProcs : 1
sigFpe : Enabling floating point exception trapping (FOAM_SIGFPE).
fileModificationChecking : Monitoring run-time modified files using timeStampMaster (fileModificationSkew 10)
allowSystemOperations : Allowing user-supplied system call operations

// * * * * * * * * * * * * * * * * * * * * * * * * * * * * * * * * * * * * * //
Create time

Create mesh for time = 0

Selecting solver functions
Selecting solver incompressibleFluid
Selecting viscosity model constant
Selecting turbulence model type laminar
Selecting laminar stress model Stokes
No MRF models present

Courant Number mean: 24.8201 max: 133.845

PIMPLE: No convergence criteria found


PIMPLE: Operating solver in transient mode with 1 outer corrector
PIMPLE: Operating solver in PISO mode



Starting time loop

Using dynamicCode for coded mixingQualityCheck at line 59 in "/home/takken/mmft-CFD-cases/DiffusiveMixing/grid-mixer/D9.0/concentrationField/system/controlDict/functions/mixingQualityCheck"
scalarTransport write:
DILUPBiCGStab:  Solving for C, Initial residual = 1, Final residual = 8.36745e-07, No Iterations 25

mixingQuality = 0.00222678
Time = 0.01s

ExecutionTime = 2.86752 s  ClockTime = 3 s

scalarTransport write:
DILUPBiCGStab:  Solving for C, Initial residual = 0.332276, Final residual = 4.27411e-07, No Iterations 26

mixingQuality = 0.00562783
Time = 0.02s

ExecutionTime = 3.30859 s  ClockTime = 3 s

scalarTransport write:
DILUPBiCGStab:  Solving for C, Initial residual = 0.14518, Final residual = 1.49789e-07, No Iterations 26

mixingQuality = 0.00934086
Time = 0.03s

ExecutionTime = 3.7486 s  ClockTime = 3 s

scalarTransport write:
DILUPBiCGStab:  Solving for C, Initial residual = 0.0821984, Final residual = 7.49927e-07, No Iterations 21

mixingQuality = 0.0128731
Time = 0.04s

ExecutionTime = 4.12095 s  ClockTime = 4 s

scalarTransport write:
DILUPBiCGStab:  Solving for C, Initial residual = 0.0583215, Final residual = 7.09182e-07, No Iterations 20

mixingQuality = 0.0162803
Time = 0.05s

ExecutionTime = 4.47699 s  ClockTime = 4 s

scalarTransport write:
DILUPBiCGStab:  Solving for C, Initial residual = 0.0455155, Final residual = 8.12845e-07, No Iterations 19

mixingQuality = 0.0196
Time = 0.06s

ExecutionTime = 4.81815 s  ClockTime = 5 s

scalarTransport write:
DILUPBiCGStab:  Solving for C, Initial residual = 0.0379294, Final residual = 5.76061e-07, No Iterations 18

mixingQuality = 0.0229089
Time = 0.07s

ExecutionTime = 5.13654 s  ClockTime = 5 s

scalarTransport write:
DILUPBiCGStab:  Solving for C, Initial residual = 0.0327108, Final residual = 9.31945e-07, No Iterations 15

mixingQuality = 0.0262153
Time = 0.08s

ExecutionTime = 5.40869 s  ClockTime = 5 s

scalarTransport write:
DILUPBiCGStab:  Solving for C, Initial residual = 0.0289222, Final residual = 4.60332e-07, No Iterations 15

mixingQuality = 0.0295146
Time = 0.09s

ExecutionTime = 5.67997 s  ClockTime = 5 s

scalarTransport write:
DILUPBiCGStab:  Solving for C, Initial residual = 0.0260225, Final residual = 3.26366e-07, No Iterations 14

mixingQuality = 0.0328087
Time = 0.1s

ExecutionTime = 5.93675 s  ClockTime = 6 s

scalarTransport write:
DILUPBiCGStab:  Solving for C, Initial residual = 0.023735, Final residual = 6.99058e-07, No Iterations 12

mixingQuality = 0.0360989
Time = 0.11s

ExecutionTime = 6.17028 s  ClockTime = 6 s

scalarTransport write:
DILUPBiCGStab:  Solving for C, Initial residual = 0.0218831, Final residual = 6.45912e-07, No Iterations 11

mixingQuality = 0.0393881
Time = 0.12s

ExecutionTime = 6.3882 s  ClockTime = 6 s

scalarTransport write:
DILUPBiCGStab:  Solving for C, Initial residual = 0.0203528, Final residual = 9.81984e-07, No Iterations 10

mixingQuality = 0.042677
Time = 0.13s

ExecutionTime = 6.59101 s  ClockTime = 6 s

scalarTransport write:
DILUPBiCGStab:  Solving for C, Initial residual = 0.0190654, Final residual = 7.82837e-07, No Iterations 10

mixingQuality = 0.0459656
Time = 0.14s

ExecutionTime = 6.79332 s  ClockTime = 7 s

scalarTransport write:
DILUPBiCGStab:  Solving for C, Initial residual = 0.0179648, Final residual = 7.13396e-07, No Iterations 10

mixingQuality = 0.0492538
Time = 0.15s

ExecutionTime = 6.98871 s  ClockTime = 7 s

scalarTransport write:
DILUPBiCGStab:  Solving for C, Initial residual = 0.0170107, Final residual = 8.06851e-07, No Iterations 10

mixingQuality = 0.052542
Time = 0.16s

ExecutionTime = 7.18395 s  ClockTime = 7 s

scalarTransport write:
DILUPBiCGStab:  Solving for C, Initial residual = 0.0161729, Final residual = 4.73737e-07, No Iterations 10

mixingQuality = 0.0558301
Time = 0.17s

ExecutionTime = 7.38694 s  ClockTime = 7 s

scalarTransport write:
DILUPBiCGStab:  Solving for C, Initial residual = 0.0154311, Final residual = 9.73763e-07, No Iterations 9

mixingQuality = 0.0591182
Time = 0.18s

ExecutionTime = 7.57407 s  ClockTime = 7 s

scalarTransport write:
DILUPBiCGStab:  Solving for C, Initial residual = 0.0147718, Final residual = 6.69931e-07, No Iterations 9

mixingQuality = 0.0624063
Time = 0.19s

ExecutionTime = 7.76129 s  ClockTime = 7 s

scalarTransport write:
DILUPBiCGStab:  Solving for C, Initial residual = 0.0141835, Final residual = 8.69811e-07, No Iterations 9

mixingQuality = 0.0656943
Time = 0.2s

ExecutionTime = 7.94155 s  ClockTime = 8 s

scalarTransport write:
DILUPBiCGStab:  Solving for C, Initial residual = 0.0136502, Final residual = 9.12764e-07, No Iterations 9

mixingQuality = 0.0689824
Time = 0.21s

ExecutionTime = 8.12162 s  ClockTime = 8 s

scalarTransport write:
DILUPBiCGStab:  Solving for C, Initial residual = 0.013162, Final residual = 3.46674e-07, No Iterations 10

mixingQuality = 0.0722705
Time = 0.22s

ExecutionTime = 8.31652 s  ClockTime = 8 s

scalarTransport write:
DILUPBiCGStab:  Solving for C, Initial residual = 0.0127126, Final residual = 3.2694e-07, No Iterations 10

mixingQuality = 0.0755585
Time = 0.23s

ExecutionTime = 8.51223 s  ClockTime = 8 s

scalarTransport write:
DILUPBiCGStab:  Solving for C, Initial residual = 0.0122973, Final residual = 8.324e-07, No Iterations 9

mixingQuality = 0.0788466
Time = 0.24s

ExecutionTime = 8.69904 s  ClockTime = 8 s

scalarTransport write:
DILUPBiCGStab:  Solving for C, Initial residual = 0.0119125, Final residual = 6.4656e-07, No Iterations 9

mixingQuality = 0.0821347
Time = 0.25s

ExecutionTime = 8.88666 s  ClockTime = 9 s

scalarTransport write:
DILUPBiCGStab:  Solving for C, Initial residual = 0.0115552, Final residual = 9.84171e-07, No Iterations 9

mixingQuality = 0.0854227
Time = 0.26s

ExecutionTime = 9.06648 s  ClockTime = 9 s

scalarTransport write:
DILUPBiCGStab:  Solving for C, Initial residual = 0.011223, Final residual = 9.65604e-07, No Iterations 8

mixingQuality = 0.0887108
Time = 0.27s

ExecutionTime = 9.23836 s  ClockTime = 9 s

scalarTransport write:
DILUPBiCGStab:  Solving for C, Initial residual = 0.010913, Final residual = 9.29345e-07, No Iterations 8

mixingQuality = 0.0919988
Time = 0.28s

ExecutionTime = 9.41108 s  ClockTime = 9 s

scalarTransport write:
DILUPBiCGStab:  Solving for C, Initial residual = 0.0106233, Final residual = 9.42357e-07, No Iterations 8

mixingQuality = 0.0952866
Time = 0.29s

ExecutionTime = 9.58275 s  ClockTime = 9 s

scalarTransport write:
DILUPBiCGStab:  Solving for C, Initial residual = 0.0103521, Final residual = 9.77327e-07, No Iterations 8

mixingQuality = 0.0985736
Time = 0.3s

ExecutionTime = 9.75446 s  ClockTime = 9 s

scalarTransport write:
DILUPBiCGStab:  Solving for C, Initial residual = 0.0100978, Final residual = 8.03215e-07, No Iterations 8

mixingQuality = 0.101861
Time = 0.31s

ExecutionTime = 9.9262 s  ClockTime = 10 s

scalarTransport write:
DILUPBiCGStab:  Solving for C, Initial residual = 0.00985868, Final residual = 5.67778e-07, No Iterations 9

mixingQuality = 0.105149
Time = 0.32s

ExecutionTime = 10.1059 s  ClockTime = 10 s

scalarTransport write:
DILUPBiCGStab:  Solving for C, Initial residual = 0.00963357, Final residual = 7.44452e-07, No Iterations 9

mixingQuality = 0.108437
Time = 0.33s

ExecutionTime = 10.2856 s  ClockTime = 10 s

scalarTransport write:
DILUPBiCGStab:  Solving for C, Initial residual = 0.00942121, Final residual = 7.96493e-07, No Iterations 9

mixingQuality = 0.111725
Time = 0.34s

ExecutionTime = 10.4656 s  ClockTime = 10 s

scalarTransport write:
DILUPBiCGStab:  Solving for C, Initial residual = 0.00922064, Final residual = 7.19629e-07, No Iterations 9

mixingQuality = 0.115013
Time = 0.35s

ExecutionTime = 10.6449 s  ClockTime = 10 s

scalarTransport write:
DILUPBiCGStab:  Solving for C, Initial residual = 0.00903105, Final residual = 6.62061e-07, No Iterations 9

mixingQuality = 0.118301
Time = 0.36s

ExecutionTime = 10.8252 s  ClockTime = 11 s

scalarTransport write:
DILUPBiCGStab:  Solving for C, Initial residual = 0.00885171, Final residual = 6.20505e-07, No Iterations 9

mixingQuality = 0.121589
Time = 0.37s

ExecutionTime = 11.0052 s  ClockTime = 11 s

scalarTransport write:
DILUPBiCGStab:  Solving for C, Initial residual = 0.00868192, Final residual = 5.81723e-07, No Iterations 9

mixingQuality = 0.124877
Time = 0.38s

ExecutionTime = 11.185 s  ClockTime = 11 s

scalarTransport write:
DILUPBiCGStab:  Solving for C, Initial residual = 0.00852093, Final residual = 5.3881e-07, No Iterations 9

mixingQuality = 0.128165
Time = 0.39s

ExecutionTime = 11.3644 s  ClockTime = 11 s

scalarTransport write:
DILUPBiCGStab:  Solving for C, Initial residual = 0.00836774, Final residual = 4.93632e-07, No Iterations 9

mixingQuality = 0.131453
Time = 0.4s

ExecutionTime = 11.544 s  ClockTime = 11 s

scalarTransport write:
DILUPBiCGStab:  Solving for C, Initial residual = 0.00822196, Final residual = 8.92459e-07, No Iterations 8

mixingQuality = 0.134742
Time = 0.41s

ExecutionTime = 11.716 s  ClockTime = 11 s

scalarTransport write:
DILUPBiCGStab:  Solving for C, Initial residual = 0.00808376, Final residual = 4.47196e-07, No Iterations 9

mixingQuality = 0.13803
Time = 0.42s

ExecutionTime = 11.8957 s  ClockTime = 12 s

scalarTransport write:
DILUPBiCGStab:  Solving for C, Initial residual = 0.00795265, Final residual = 5.86684e-07, No Iterations 9

mixingQuality = 0.141277
Time = 0.43s

ExecutionTime = 12.0748 s  ClockTime = 12 s

scalarTransport write:
DILUPBiCGStab:  Solving for C, Initial residual = 0.007828, Final residual = 6.00118e-07, No Iterations 9

mixingQuality = 0.144518
Time = 0.44s

ExecutionTime = 12.2542 s  ClockTime = 12 s

scalarTransport write:
DILUPBiCGStab:  Solving for C, Initial residual = 0.00770933, Final residual = 4.60412e-07, No Iterations 9

mixingQuality = 0.147757
Time = 0.45s

ExecutionTime = 12.434 s  ClockTime = 12 s

scalarTransport write:
DILUPBiCGStab:  Solving for C, Initial residual = 0.00759619, Final residual = 3.9283e-07, No Iterations 9

mixingQuality = 0.150981
Time = 0.46s

ExecutionTime = 12.6147 s  ClockTime = 12 s

scalarTransport write:
DILUPBiCGStab:  Solving for C, Initial residual = 0.00748821, Final residual = 3.84406e-07, No Iterations 9

mixingQuality = 0.154215
Time = 0.47s

ExecutionTime = 12.7958 s  ClockTime = 13 s

scalarTransport write:
DILUPBiCGStab:  Solving for C, Initial residual = 0.00738507, Final residual = 3.80601e-07, No Iterations 9

mixingQuality = 0.157446
Time = 0.48s

ExecutionTime = 12.9753 s  ClockTime = 13 s

scalarTransport write:
DILUPBiCGStab:  Solving for C, Initial residual = 0.00728645, Final residual = 3.63894e-07, No Iterations 9

mixingQuality = 0.160677
Time = 0.49s

ExecutionTime = 13.1548 s  ClockTime = 13 s

scalarTransport write:
DILUPBiCGStab:  Solving for C, Initial residual = 0.00719207, Final residual = 9.71261e-07, No Iterations 8

mixingQuality = 0.163903
Time = 0.5s

ExecutionTime = 13.327 s  ClockTime = 13 s

scalarTransport write:
DILUPBiCGStab:  Solving for C, Initial residual = 0.00710166, Final residual = 7.62316e-07, No Iterations 8

mixingQuality = 0.167126
Time = 0.51s

ExecutionTime = 13.4987 s  ClockTime = 13 s

scalarTransport write:
DILUPBiCGStab:  Solving for C, Initial residual = 0.00701494, Final residual = 6.07729e-07, No Iterations 8

mixingQuality = 0.170345
Time = 0.52s

ExecutionTime = 13.6704 s  ClockTime = 13 s

scalarTransport write:
DILUPBiCGStab:  Solving for C, Initial residual = 0.00693159, Final residual = 9.2508e-07, No Iterations 8

mixingQuality = 0.173571
Time = 0.53s

ExecutionTime = 13.8356 s  ClockTime = 14 s

scalarTransport write:
DILUPBiCGStab:  Solving for C, Initial residual = 0.00685144, Final residual = 8.68593e-07, No Iterations 8

mixingQuality = 0.176785
Time = 0.54s

ExecutionTime = 13.9999 s  ClockTime = 14 s

scalarTransport write:
DILUPBiCGStab:  Solving for C, Initial residual = 0.00677447, Final residual = 8.69398e-07, No Iterations 8

mixingQuality = 0.18001
Time = 0.55s

ExecutionTime = 14.1646 s  ClockTime = 14 s

scalarTransport write:
DILUPBiCGStab:  Solving for C, Initial residual = 0.00670058, Final residual = 9.19213e-07, No Iterations 8

mixingQuality = 0.183243
Time = 0.56s

ExecutionTime = 14.3286 s  ClockTime = 14 s

scalarTransport write:
DILUPBiCGStab:  Solving for C, Initial residual = 0.00662959, Final residual = 6.42017e-07, No Iterations 8

mixingQuality = 0.18648
Time = 0.57s

ExecutionTime = 14.4999 s  ClockTime = 14 s

scalarTransport write:
DILUPBiCGStab:  Solving for C, Initial residual = 0.00656136, Final residual = 7.56079e-07, No Iterations 8

mixingQuality = 0.189707
Time = 0.58s

ExecutionTime = 14.6719 s  ClockTime = 14 s

scalarTransport write:
DILUPBiCGStab:  Solving for C, Initial residual = 0.00649574, Final residual = 9.33513e-07, No Iterations 8

mixingQuality = 0.192939
Time = 0.59s

ExecutionTime = 14.8435 s  ClockTime = 15 s

scalarTransport write:
DILUPBiCGStab:  Solving for C, Initial residual = 0.00643257, Final residual = 8.15537e-07, No Iterations 9

mixingQuality = 0.196179
Time = 0.6s

ExecutionTime = 15.0238 s  ClockTime = 15 s

scalarTransport write:
DILUPBiCGStab:  Solving for C, Initial residual = 0.0063717, Final residual = 9.70843e-07, No Iterations 9

mixingQuality = 0.199424
Time = 0.61s

ExecutionTime = 15.2035 s  ClockTime = 15 s

scalarTransport write:
DILUPBiCGStab:  Solving for C, Initial residual = 0.00631297, Final residual = 7.05919e-07, No Iterations 9

mixingQuality = 0.202673
Time = 0.62s

ExecutionTime = 15.3909 s  ClockTime = 15 s

scalarTransport write:
DILUPBiCGStab:  Solving for C, Initial residual = 0.00625621, Final residual = 7.7854e-07, No Iterations 9

mixingQuality = 0.205924
Time = 0.63s

ExecutionTime = 15.578 s  ClockTime = 15 s

scalarTransport write:
DILUPBiCGStab:  Solving for C, Initial residual = 0.00620122, Final residual = 9.11183e-07, No Iterations 9

mixingQuality = 0.209176
Time = 0.64s

ExecutionTime = 15.7651 s  ClockTime = 16 s

scalarTransport write:
DILUPBiCGStab:  Solving for C, Initial residual = 0.0061476, Final residual = 7.27113e-07, No Iterations 10

mixingQuality = 0.212429
Time = 0.65s

ExecutionTime = 15.9681 s  ClockTime = 16 s

scalarTransport write:
DILUPBiCGStab:  Solving for C, Initial residual = 0.00609508, Final residual = 8.79961e-07, No Iterations 10

mixingQuality = 0.215682
Time = 0.66s

ExecutionTime = 16.1633 s  ClockTime = 16 s

scalarTransport write:
DILUPBiCGStab:  Solving for C, Initial residual = 0.00604362, Final residual = 9.86129e-07, No Iterations 10

mixingQuality = 0.218919
Time = 0.67s

ExecutionTime = 16.3582 s  ClockTime = 16 s

scalarTransport write:
DILUPBiCGStab:  Solving for C, Initial residual = 0.00599316, Final residual = 7.82389e-07, No Iterations 10

mixingQuality = 0.222137
Time = 0.68s

ExecutionTime = 16.5602 s  ClockTime = 16 s

scalarTransport write:
DILUPBiCGStab:  Solving for C, Initial residual = 0.00594335, Final residual = 2.13188e-07, No Iterations 13

mixingQuality = 0.225358
Time = 0.69s

ExecutionTime = 16.8012 s  ClockTime = 17 s

scalarTransport write:
DILUPBiCGStab:  Solving for C, Initial residual = 0.00589377, Final residual = 5.33177e-07, No Iterations 12

mixingQuality = 0.228581
Time = 0.7s

ExecutionTime = 17.0264 s  ClockTime = 17 s

scalarTransport write:
DILUPBiCGStab:  Solving for C, Initial residual = 0.00584402, Final residual = 5.05447e-07, No Iterations 12

mixingQuality = 0.231801
Time = 0.71s

ExecutionTime = 17.2522 s  ClockTime = 17 s

scalarTransport write:
DILUPBiCGStab:  Solving for C, Initial residual = 0.00579372, Final residual = 8.71294e-07, No Iterations 13

mixingQuality = 0.235019
Time = 0.72s

ExecutionTime = 17.5005 s  ClockTime = 17 s

scalarTransport write:
DILUPBiCGStab:  Solving for C, Initial residual = 0.00574237, Final residual = 9.50514e-07, No Iterations 11

mixingQuality = 0.23823
Time = 0.73s

ExecutionTime = 17.7109 s  ClockTime = 17 s

scalarTransport write:
DILUPBiCGStab:  Solving for C, Initial residual = 0.00568961, Final residual = 5.99953e-07, No Iterations 14

mixingQuality = 0.241433
Time = 0.74s

ExecutionTime = 17.9678 s  ClockTime = 18 s

scalarTransport write:
DILUPBiCGStab:  Solving for C, Initial residual = 0.00563496, Final residual = 9.56698e-07, No Iterations 14

mixingQuality = 0.244624
Time = 0.75s

ExecutionTime = 18.2241 s  ClockTime = 18 s

scalarTransport write:
DILUPBiCGStab:  Solving for C, Initial residual = 0.00557804, Final residual = 2.24321e-07, No Iterations 15

mixingQuality = 0.247802
Time = 0.76s

ExecutionTime = 18.4955 s  ClockTime = 18 s

scalarTransport write:
DILUPBiCGStab:  Solving for C, Initial residual = 0.00551839, Final residual = 3.37484e-07, No Iterations 15

mixingQuality = 0.250963
Time = 0.77s

ExecutionTime = 18.7674 s  ClockTime = 19 s

scalarTransport write:
DILUPBiCGStab:  Solving for C, Initial residual = 0.00545553, Final residual = 3.96754e-07, No Iterations 15

mixingQuality = 0.254104
Time = 0.78s

ExecutionTime = 19.0392 s  ClockTime = 19 s

scalarTransport write:
DILUPBiCGStab:  Solving for C, Initial residual = 0.00538903, Final residual = 4.86125e-07, No Iterations 15

mixingQuality = 0.257222
Time = 0.79s

ExecutionTime = 19.3113 s  ClockTime = 19 s

scalarTransport write:
DILUPBiCGStab:  Solving for C, Initial residual = 0.0053187, Final residual = 8.3885e-07, No Iterations 13

mixingQuality = 0.260314
Time = 0.8s

ExecutionTime = 19.5519 s  ClockTime = 19 s

scalarTransport write:
DILUPBiCGStab:  Solving for C, Initial residual = 0.0052445, Final residual = 5.8479e-07, No Iterations 13

mixingQuality = 0.263376
Time = 0.81s

ExecutionTime = 19.7932 s  ClockTime = 20 s

scalarTransport write:
DILUPBiCGStab:  Solving for C, Initial residual = 0.0051663, Final residual = 9.52818e-07, No Iterations 13

mixingQuality = 0.266405
Time = 0.82s

ExecutionTime = 20.042 s  ClockTime = 20 s

scalarTransport write:
DILUPBiCGStab:  Solving for C, Initial residual = 0.00508398, Final residual = 7.33594e-07, No Iterations 13

mixingQuality = 0.269398
Time = 0.83s

ExecutionTime = 20.2898 s  ClockTime = 20 s

scalarTransport write:
DILUPBiCGStab:  Solving for C, Initial residual = 0.00499749, Final residual = 9.3802e-07, No Iterations 12

mixingQuality = 0.272352
Time = 0.84s

ExecutionTime = 20.523 s  ClockTime = 20 s

scalarTransport write:
DILUPBiCGStab:  Solving for C, Initial residual = 0.00490695, Final residual = 5.88464e-07, No Iterations 13

mixingQuality = 0.275262
Time = 0.85s

ExecutionTime = 20.7645 s  ClockTime = 21 s

scalarTransport write:
DILUPBiCGStab:  Solving for C, Initial residual = 0.00481254, Final residual = 5.38182e-07, No Iterations 13

mixingQuality = 0.278127
Time = 0.86s

ExecutionTime = 21.0053 s  ClockTime = 21 s

scalarTransport write:
DILUPBiCGStab:  Solving for C, Initial residual = 0.00471456, Final residual = 5.94637e-07, No Iterations 13

mixingQuality = 0.280944
Time = 0.87s

ExecutionTime = 21.2461 s  ClockTime = 21 s

scalarTransport write:
DILUPBiCGStab:  Solving for C, Initial residual = 0.00461337, Final residual = 9.35006e-07, No Iterations 13

mixingQuality = 0.28371
Time = 0.88s

ExecutionTime = 21.4942 s  ClockTime = 21 s

scalarTransport write:
DILUPBiCGStab:  Solving for C, Initial residual = 0.00450936, Final residual = 9.53644e-07, No Iterations 12

mixingQuality = 0.286423
Time = 0.89s

ExecutionTime = 21.7275 s  ClockTime = 21 s

scalarTransport write:
DILUPBiCGStab:  Solving for C, Initial residual = 0.00440304, Final residual = 7.55019e-07, No Iterations 12

mixingQuality = 0.289082
Time = 0.9s

ExecutionTime = 21.9607 s  ClockTime = 22 s

scalarTransport write:
DILUPBiCGStab:  Solving for C, Initial residual = 0.00429489, Final residual = 8.26406e-07, No Iterations 12

mixingQuality = 0.291684
Time = 0.91s

ExecutionTime = 22.1942 s  ClockTime = 22 s

scalarTransport write:
DILUPBiCGStab:  Solving for C, Initial residual = 0.00418545, Final residual = 9.91788e-07, No Iterations 12

mixingQuality = 0.294228
Time = 0.92s

ExecutionTime = 22.4274 s  ClockTime = 22 s

scalarTransport write:
DILUPBiCGStab:  Solving for C, Initial residual = 0.00407524, Final residual = 4.62418e-07, No Iterations 13

mixingQuality = 0.296715
Time = 0.93s

ExecutionTime = 22.6692 s  ClockTime = 22 s

scalarTransport write:
DILUPBiCGStab:  Solving for C, Initial residual = 0.00396481, Final residual = 9.72904e-07, No Iterations 13

mixingQuality = 0.299142
Time = 0.94s

ExecutionTime = 22.9106 s  ClockTime = 23 s

scalarTransport write:
DILUPBiCGStab:  Solving for C, Initial residual = 0.00385474, Final residual = 1.48332e-07, No Iterations 15

mixingQuality = 0.301511
Time = 0.95s

ExecutionTime = 23.1826 s  ClockTime = 23 s

scalarTransport write:
DILUPBiCGStab:  Solving for C, Initial residual = 0.00374563, Final residual = 7.42322e-07, No Iterations 12

mixingQuality = 0.303822
Time = 0.96s

ExecutionTime = 23.4157 s  ClockTime = 23 s

scalarTransport write:
DILUPBiCGStab:  Solving for C, Initial residual = 0.00363803, Final residual = 7.17553e-07, No Iterations 12

mixingQuality = 0.306074
Time = 0.97s

ExecutionTime = 23.6494 s  ClockTime = 23 s

scalarTransport write:
DILUPBiCGStab:  Solving for C, Initial residual = 0.00353241, Final residual = 9.19104e-07, No Iterations 12

mixingQuality = 0.308269
Time = 0.98s

ExecutionTime = 23.8825 s  ClockTime = 24 s

scalarTransport write:
DILUPBiCGStab:  Solving for C, Initial residual = 0.00342918, Final residual = 2.06785e-07, No Iterations 14

mixingQuality = 0.310408
Time = 0.99s

ExecutionTime = 24.139 s  ClockTime = 24 s

scalarTransport write:
DILUPBiCGStab:  Solving for C, Initial residual = 0.00332864, Final residual = 9.90202e-07, No Iterations 12

mixingQuality = 0.312493
Time = 1s

ExecutionTime = 24.3646 s  ClockTime = 24 s

scalarTransport write:
DILUPBiCGStab:  Solving for C, Initial residual = 0.0032311, Final residual = 9.42012e-07, No Iterations 10

mixingQuality = 0.314523
Time = 1.01s

ExecutionTime = 24.5663 s  ClockTime = 24 s

scalarTransport write:
DILUPBiCGStab:  Solving for C, Initial residual = 0.00313677, Final residual = 9.69478e-07, No Iterations 10

mixingQuality = 0.316502
Time = 1.02s

ExecutionTime = 24.7689 s  ClockTime = 25 s

scalarTransport write:
DILUPBiCGStab:  Solving for C, Initial residual = 0.00304578, Final residual = 7.49571e-07, No Iterations 10

mixingQuality = 0.318431
Time = 1.03s

ExecutionTime = 24.9716 s  ClockTime = 25 s

scalarTransport write:
DILUPBiCGStab:  Solving for C, Initial residual = 0.00295824, Final residual = 7.55025e-07, No Iterations 10

mixingQuality = 0.320311
Time = 1.04s

ExecutionTime = 25.1742 s  ClockTime = 25 s

scalarTransport write:
DILUPBiCGStab:  Solving for C, Initial residual = 0.00287421, Final residual = 8.42703e-07, No Iterations 10

mixingQuality = 0.322145
Time = 1.05s

ExecutionTime = 25.3769 s  ClockTime = 25 s

scalarTransport write:
DILUPBiCGStab:  Solving for C, Initial residual = 0.00279371, Final residual = 7.90733e-07, No Iterations 11

mixingQuality = 0.323933
Time = 1.06s

ExecutionTime = 25.5947 s  ClockTime = 25 s

scalarTransport write:
DILUPBiCGStab:  Solving for C, Initial residual = 0.00271674, Final residual = 9.71717e-07, No Iterations 9

mixingQuality = 0.325679
Time = 1.07s

ExecutionTime = 25.7825 s  ClockTime = 26 s

scalarTransport write:
DILUPBiCGStab:  Solving for C, Initial residual = 0.00264329, Final residual = 9.08201e-07, No Iterations 9

mixingQuality = 0.327383
Time = 1.08s

ExecutionTime = 25.9701 s  ClockTime = 26 s

scalarTransport write:
DILUPBiCGStab:  Solving for C, Initial residual = 0.00257328, Final residual = 8.98533e-07, No Iterations 9

mixingQuality = 0.329049
Time = 1.09s

ExecutionTime = 26.1573 s  ClockTime = 26 s

scalarTransport write:
DILUPBiCGStab:  Solving for C, Initial residual = 0.00250662, Final residual = 8.82678e-07, No Iterations 9

mixingQuality = 0.330677
Time = 1.1s

ExecutionTime = 26.3446 s  ClockTime = 26 s

scalarTransport write:
DILUPBiCGStab:  Solving for C, Initial residual = 0.00244322, Final residual = 8.5741e-07, No Iterations 9

mixingQuality = 0.332269
Time = 1.11s

ExecutionTime = 26.5317 s  ClockTime = 26 s

scalarTransport write:
DILUPBiCGStab:  Solving for C, Initial residual = 0.00238299, Final residual = 8.27671e-07, No Iterations 9

mixingQuality = 0.333827
Time = 1.12s

ExecutionTime = 26.7194 s  ClockTime = 26 s

scalarTransport write:
DILUPBiCGStab:  Solving for C, Initial residual = 0.0023258, Final residual = 7.96005e-07, No Iterations 9

mixingQuality = 0.335352
Time = 1.13s

ExecutionTime = 26.9067 s  ClockTime = 27 s

scalarTransport write:
DILUPBiCGStab:  Solving for C, Initial residual = 0.00227152, Final residual = 7.64379e-07, No Iterations 9

mixingQuality = 0.336847
Time = 1.14s

ExecutionTime = 27.0937 s  ClockTime = 27 s

scalarTransport write:
DILUPBiCGStab:  Solving for C, Initial residual = 0.00222002, Final residual = 7.33963e-07, No Iterations 9

mixingQuality = 0.338312
Time = 1.15s

ExecutionTime = 27.2809 s  ClockTime = 27 s

scalarTransport write:
DILUPBiCGStab:  Solving for C, Initial residual = 0.00217116, Final residual = 9.82221e-07, No Iterations 9

mixingQuality = 0.33975
Time = 1.16s

ExecutionTime = 27.4605 s  ClockTime = 27 s

scalarTransport write:
DILUPBiCGStab:  Solving for C, Initial residual = 0.00212482, Final residual = 8.58301e-07, No Iterations 9

mixingQuality = 0.341161
Time = 1.17s

ExecutionTime = 27.6402 s  ClockTime = 27 s

scalarTransport write:
DILUPBiCGStab:  Solving for C, Initial residual = 0.00208086, Final residual = 8.40971e-07, No Iterations 9

mixingQuality = 0.342547
Time = 1.18s

ExecutionTime = 27.8204 s  ClockTime = 28 s

scalarTransport write:
DILUPBiCGStab:  Solving for C, Initial residual = 0.00203915, Final residual = 8.2123e-07, No Iterations 9

mixingQuality = 0.343909
Time = 1.19s

ExecutionTime = 28.0005 s  ClockTime = 28 s

scalarTransport write:
DILUPBiCGStab:  Solving for C, Initial residual = 0.00199956, Final residual = 7.95771e-07, No Iterations 9

mixingQuality = 0.345248
Time = 1.2s

ExecutionTime = 28.1803 s  ClockTime = 28 s

scalarTransport write:
DILUPBiCGStab:  Solving for C, Initial residual = 0.00196199, Final residual = 7.6933e-07, No Iterations 9

mixingQuality = 0.346566
Time = 1.21s

ExecutionTime = 28.3607 s  ClockTime = 28 s

scalarTransport write:
DILUPBiCGStab:  Solving for C, Initial residual = 0.00192631, Final residual = 7.43148e-07, No Iterations 9

mixingQuality = 0.347863
Time = 1.22s

ExecutionTime = 28.5404 s  ClockTime = 28 s

scalarTransport write:
DILUPBiCGStab:  Solving for C, Initial residual = 0.00189242, Final residual = 7.17411e-07, No Iterations 9

mixingQuality = 0.34914
Time = 1.23s

ExecutionTime = 28.7199 s  ClockTime = 28 s

scalarTransport write:
DILUPBiCGStab:  Solving for C, Initial residual = 0.00186019, Final residual = 6.92518e-07, No Iterations 9

mixingQuality = 0.350399
Time = 1.24s

ExecutionTime = 28.9007 s  ClockTime = 29 s

scalarTransport write:
DILUPBiCGStab:  Solving for C, Initial residual = 0.00182953, Final residual = 6.6899e-07, No Iterations 9

mixingQuality = 0.35164
Time = 1.25s

ExecutionTime = 29.0804 s  ClockTime = 29 s

scalarTransport write:
DILUPBiCGStab:  Solving for C, Initial residual = 0.00180035, Final residual = 9.91481e-07, No Iterations 8

mixingQuality = 0.352864
Time = 1.26s

ExecutionTime = 29.2522 s  ClockTime = 29 s

scalarTransport write:
DILUPBiCGStab:  Solving for C, Initial residual = 0.00177255, Final residual = 9.87473e-07, No Iterations 8

mixingQuality = 0.354072
Time = 1.27s

ExecutionTime = 29.4236 s  ClockTime = 29 s

scalarTransport write:
DILUPBiCGStab:  Solving for C, Initial residual = 0.00174604, Final residual = 9.76676e-07, No Iterations 8

mixingQuality = 0.355264
Time = 1.28s

ExecutionTime = 29.5956 s  ClockTime = 29 s

scalarTransport write:
DILUPBiCGStab:  Solving for C, Initial residual = 0.00172073, Final residual = 9.57229e-07, No Iterations 8

mixingQuality = 0.356442
Time = 1.29s

ExecutionTime = 29.7685 s  ClockTime = 30 s

scalarTransport write:
DILUPBiCGStab:  Solving for C, Initial residual = 0.00169654, Final residual = 9.38315e-07, No Iterations 8

mixingQuality = 0.357605
Time = 1.3s

ExecutionTime = 29.9404 s  ClockTime = 30 s

scalarTransport write:
DILUPBiCGStab:  Solving for C, Initial residual = 0.00167341, Final residual = 9.25055e-07, No Iterations 8

mixingQuality = 0.358755
Time = 1.31s

ExecutionTime = 30.1118 s  ClockTime = 30 s

scalarTransport write:
DILUPBiCGStab:  Solving for C, Initial residual = 0.00165127, Final residual = 9.19013e-07, No Iterations 8

mixingQuality = 0.359891
Time = 1.32s

ExecutionTime = 30.2832 s  ClockTime = 30 s

scalarTransport write:
DILUPBiCGStab:  Solving for C, Initial residual = 0.00163004, Final residual = 9.20711e-07, No Iterations 8

mixingQuality = 0.361016
Time = 1.33s

ExecutionTime = 30.4546 s  ClockTime = 30 s

scalarTransport write:
DILUPBiCGStab:  Solving for C, Initial residual = 0.00160968, Final residual = 9.3116e-07, No Iterations 8

mixingQuality = 0.362128
Time = 1.34s

ExecutionTime = 30.6264 s  ClockTime = 30 s

scalarTransport write:
DILUPBiCGStab:  Solving for C, Initial residual = 0.00159011, Final residual = 9.52264e-07, No Iterations 8

mixingQuality = 0.363229
Time = 1.35s

ExecutionTime = 30.7983 s  ClockTime = 31 s

scalarTransport write:
DILUPBiCGStab:  Solving for C, Initial residual = 0.0015713, Final residual = 9.88179e-07, No Iterations 8

mixingQuality = 0.364318
Time = 1.36s

ExecutionTime = 30.9702 s  ClockTime = 31 s

scalarTransport write:
DILUPBiCGStab:  Solving for C, Initial residual = 0.00155319, Final residual = 4.6408e-07, No Iterations 9

mixingQuality = 0.365397
Time = 1.37s

ExecutionTime = 31.1501 s  ClockTime = 31 s

scalarTransport write:
DILUPBiCGStab:  Solving for C, Initial residual = 0.00153575, Final residual = 9.06717e-07, No Iterations 8

mixingQuality = 0.366466
Time = 1.38s

ExecutionTime = 31.3223 s  ClockTime = 31 s

scalarTransport write:
DILUPBiCGStab:  Solving for C, Initial residual = 0.00151891, Final residual = 4.55003e-07, No Iterations 9

mixingQuality = 0.367524
Time = 1.39s

ExecutionTime = 31.5021 s  ClockTime = 31 s

scalarTransport write:
DILUPBiCGStab:  Solving for C, Initial residual = 0.00150264, Final residual = 9.36713e-07, No Iterations 8

mixingQuality = 0.368573
Time = 1.4s

ExecutionTime = 31.6742 s  ClockTime = 31 s

scalarTransport write:
DILUPBiCGStab:  Solving for C, Initial residual = 0.0014869, Final residual = 4.41139e-07, No Iterations 9

mixingQuality = 0.369612
Time = 1.41s

ExecutionTime = 31.8538 s  ClockTime = 32 s

scalarTransport write:
DILUPBiCGStab:  Solving for C, Initial residual = 0.00147165, Final residual = 9.81872e-07, No Iterations 8

mixingQuality = 0.370643
Time = 1.42s

ExecutionTime = 32.0258 s  ClockTime = 32 s

scalarTransport write:
DILUPBiCGStab:  Solving for C, Initial residual = 0.00145685, Final residual = 4.29716e-07, No Iterations 9

mixingQuality = 0.371664
Time = 1.43s

ExecutionTime = 32.205 s  ClockTime = 32 s

scalarTransport write:
DILUPBiCGStab:  Solving for C, Initial residual = 0.00144249, Final residual = 4.30241e-07, No Iterations 9

mixingQuality = 0.372677
Time = 1.44s

ExecutionTime = 32.3845 s  ClockTime = 32 s

scalarTransport write:
DILUPBiCGStab:  Solving for C, Initial residual = 0.00142853, Final residual = 9.97671e-07, No Iterations 8

mixingQuality = 0.373682
Time = 1.45s

ExecutionTime = 32.5564 s  ClockTime = 32 s

scalarTransport write:
DILUPBiCGStab:  Solving for C, Initial residual = 0.00141493, Final residual = 4.13394e-07, No Iterations 9

mixingQuality = 0.374679
Time = 1.46s

ExecutionTime = 32.7363 s  ClockTime = 33 s

scalarTransport write:
DILUPBiCGStab:  Solving for C, Initial residual = 0.0014017, Final residual = 4.11414e-07, No Iterations 9

mixingQuality = 0.375667
Time = 1.47s

ExecutionTime = 32.9159 s  ClockTime = 33 s

scalarTransport write:
DILUPBiCGStab:  Solving for C, Initial residual = 0.00138878, Final residual = 4.11213e-07, No Iterations 9

mixingQuality = 0.376648
Time = 1.48s

ExecutionTime = 33.0954 s  ClockTime = 33 s

scalarTransport write:
DILUPBiCGStab:  Solving for C, Initial residual = 0.00137617, Final residual = 4.07083e-07, No Iterations 9

mixingQuality = 0.377622
Time = 1.49s

ExecutionTime = 33.2752 s  ClockTime = 33 s

scalarTransport write:
DILUPBiCGStab:  Solving for C, Initial residual = 0.00136383, Final residual = 4.02493e-07, No Iterations 9

mixingQuality = 0.378588
Time = 1.5s

ExecutionTime = 33.4546 s  ClockTime = 33 s

scalarTransport write:
DILUPBiCGStab:  Solving for C, Initial residual = 0.00135172, Final residual = 3.98812e-07, No Iterations 9

mixingQuality = 0.379547
Time = 1.51s

ExecutionTime = 33.6341 s  ClockTime = 33 s

scalarTransport write:
DILUPBiCGStab:  Solving for C, Initial residual = 0.00133984, Final residual = 3.9576e-07, No Iterations 9

mixingQuality = 0.380498
Time = 1.52s

ExecutionTime = 33.8137 s  ClockTime = 34 s

scalarTransport write:
DILUPBiCGStab:  Solving for C, Initial residual = 0.00132818, Final residual = 3.93043e-07, No Iterations 9

mixingQuality = 0.381443
Time = 1.53s

ExecutionTime = 33.9931 s  ClockTime = 34 s

scalarTransport write:
DILUPBiCGStab:  Solving for C, Initial residual = 0.00131671, Final residual = 9.85498e-07, No Iterations 8

mixingQuality = 0.382381
Time = 1.54s

ExecutionTime = 34.1652 s  ClockTime = 34 s

scalarTransport write:
DILUPBiCGStab:  Solving for C, Initial residual = 0.00130543, Final residual = 3.80704e-07, No Iterations 9

mixingQuality = 0.383312
Time = 1.55s

ExecutionTime = 34.3445 s  ClockTime = 34 s

scalarTransport write:
DILUPBiCGStab:  Solving for C, Initial residual = 0.00129433, Final residual = 3.82374e-07, No Iterations 9

mixingQuality = 0.384236
Time = 1.56s

ExecutionTime = 34.5244 s  ClockTime = 34 s

scalarTransport write:
DILUPBiCGStab:  Solving for C, Initial residual = 0.00128338, Final residual = 9.34959e-07, No Iterations 8

mixingQuality = 0.385154
Time = 1.57s

ExecutionTime = 34.6955 s  ClockTime = 34 s

scalarTransport write:
DILUPBiCGStab:  Solving for C, Initial residual = 0.00127256, Final residual = 3.75169e-07, No Iterations 9

mixingQuality = 0.386065
Time = 1.58s

ExecutionTime = 34.8755 s  ClockTime = 35 s

scalarTransport write:
DILUPBiCGStab:  Solving for C, Initial residual = 0.00126188, Final residual = 9.44437e-07, No Iterations 8

mixingQuality = 0.38697
Time = 1.59s

ExecutionTime = 35.0475 s  ClockTime = 35 s

scalarTransport write:
DILUPBiCGStab:  Solving for C, Initial residual = 0.00125132, Final residual = 3.70913e-07, No Iterations 9

mixingQuality = 0.387869
Time = 1.6s

ExecutionTime = 35.2271 s  ClockTime = 35 s

scalarTransport write:
DILUPBiCGStab:  Solving for C, Initial residual = 0.0012409, Final residual = 8.96138e-07, No Iterations 8

mixingQuality = 0.388761
Time = 1.61s

ExecutionTime = 35.3995 s  ClockTime = 35 s

scalarTransport write:
DILUPBiCGStab:  Solving for C, Initial residual = 0.00123058, Final residual = 3.68217e-07, No Iterations 9

mixingQuality = 0.389647
Time = 1.62s

ExecutionTime = 35.5793 s  ClockTime = 35 s

scalarTransport write:
DILUPBiCGStab:  Solving for C, Initial residual = 0.00122036, Final residual = 8.52005e-07, No Iterations 8

mixingQuality = 0.390526
Time = 1.63s

ExecutionTime = 35.7516 s  ClockTime = 36 s

scalarTransport write:
DILUPBiCGStab:  Solving for C, Initial residual = 0.00121023, Final residual = 3.65559e-07, No Iterations 9

mixingQuality = 0.3914
Time = 1.64s

ExecutionTime = 35.931 s  ClockTime = 36 s

scalarTransport write:
DILUPBiCGStab:  Solving for C, Initial residual = 0.00120019, Final residual = 8.15303e-07, No Iterations 8

mixingQuality = 0.392267
Time = 1.65s

ExecutionTime = 36.1026 s  ClockTime = 36 s

scalarTransport write:
DILUPBiCGStab:  Solving for C, Initial residual = 0.00119021, Final residual = 9.37449e-07, No Iterations 8

mixingQuality = 0.393128
Time = 1.66s

ExecutionTime = 36.2746 s  ClockTime = 36 s

scalarTransport write:
DILUPBiCGStab:  Solving for C, Initial residual = 0.00118029, Final residual = 3.61369e-07, No Iterations 9

mixingQuality = 0.393983
Time = 1.67s

ExecutionTime = 36.4539 s  ClockTime = 36 s

scalarTransport write:
DILUPBiCGStab:  Solving for C, Initial residual = 0.00117045, Final residual = 7.72967e-07, No Iterations 8

mixingQuality = 0.394832
Time = 1.68s

ExecutionTime = 36.6258 s  ClockTime = 36 s

scalarTransport write:
DILUPBiCGStab:  Solving for C, Initial residual = 0.00116064, Final residual = 8.48812e-07, No Iterations 8

mixingQuality = 0.395675
Time = 1.69s

ExecutionTime = 36.7973 s  ClockTime = 37 s

scalarTransport write:
DILUPBiCGStab:  Solving for C, Initial residual = 0.00115088, Final residual = 9.15011e-07, No Iterations 8

mixingQuality = 0.396512
Time = 1.7s

ExecutionTime = 36.969 s  ClockTime = 37 s

scalarTransport write:
DILUPBiCGStab:  Solving for C, Initial residual = 0.00114116, Final residual = 9.31313e-07, No Iterations 8

mixingQuality = 0.397343
Time = 1.71s

ExecutionTime = 37.1405 s  ClockTime = 37 s

scalarTransport write:
DILUPBiCGStab:  Solving for C, Initial residual = 0.00113147, Final residual = 9.12942e-07, No Iterations 8

mixingQuality = 0.398168
Time = 1.72s

ExecutionTime = 37.3117 s  ClockTime = 37 s

scalarTransport write:
DILUPBiCGStab:  Solving for C, Initial residual = 0.00112182, Final residual = 8.8214e-07, No Iterations 8

mixingQuality = 0.398987
Time = 1.73s

ExecutionTime = 37.483 s  ClockTime = 37 s

scalarTransport write:
DILUPBiCGStab:  Solving for C, Initial residual = 0.0011122, Final residual = 8.51849e-07, No Iterations 8

mixingQuality = 0.399799
Time = 1.74s

ExecutionTime = 37.6546 s  ClockTime = 37 s

scalarTransport write:
DILUPBiCGStab:  Solving for C, Initial residual = 0.0011026, Final residual = 8.26067e-07, No Iterations 8

mixingQuality = 0.400606
Time = 1.75s

ExecutionTime = 37.8259 s  ClockTime = 38 s

scalarTransport write:
DILUPBiCGStab:  Solving for C, Initial residual = 0.00109304, Final residual = 8.04674e-07, No Iterations 8

mixingQuality = 0.401407
Time = 1.76s

ExecutionTime = 37.9976 s  ClockTime = 38 s

scalarTransport write:
DILUPBiCGStab:  Solving for C, Initial residual = 0.00108349, Final residual = 7.86347e-07, No Iterations 8

mixingQuality = 0.402201
Time = 1.77s

ExecutionTime = 38.1694 s  ClockTime = 38 s

scalarTransport write:
DILUPBiCGStab:  Solving for C, Initial residual = 0.00107397, Final residual = 7.70003e-07, No Iterations 8

mixingQuality = 0.40299
Time = 1.78s

ExecutionTime = 38.3411 s  ClockTime = 38 s

scalarTransport write:
DILUPBiCGStab:  Solving for C, Initial residual = 0.00106446, Final residual = 7.55026e-07, No Iterations 8

mixingQuality = 0.403772
Time = 1.79s

ExecutionTime = 38.513 s  ClockTime = 38 s

scalarTransport write:
DILUPBiCGStab:  Solving for C, Initial residual = 0.00105497, Final residual = 7.4109e-07, No Iterations 8

mixingQuality = 0.404549
Time = 1.8s

ExecutionTime = 38.6842 s  ClockTime = 38 s

scalarTransport write:
DILUPBiCGStab:  Solving for C, Initial residual = 0.0010455, Final residual = 7.28079e-07, No Iterations 8

mixingQuality = 0.405319
Time = 1.81s

ExecutionTime = 38.8559 s  ClockTime = 39 s

scalarTransport write:
DILUPBiCGStab:  Solving for C, Initial residual = 0.00103604, Final residual = 7.15907e-07, No Iterations 8

mixingQuality = 0.406083
Time = 1.82s

ExecutionTime = 39.0275 s  ClockTime = 39 s

scalarTransport write:
DILUPBiCGStab:  Solving for C, Initial residual = 0.0010266, Final residual = 9.83713e-07, No Iterations 8

mixingQuality = 0.406842
Time = 1.83s

ExecutionTime = 39.1915 s  ClockTime = 39 s

scalarTransport write:
DILUPBiCGStab:  Solving for C, Initial residual = 0.00101717, Final residual = 7.60787e-07, No Iterations 8

mixingQuality = 0.407594
Time = 1.84s

ExecutionTime = 39.3631 s  ClockTime = 39 s

scalarTransport write:
DILUPBiCGStab:  Solving for C, Initial residual = 0.00100776, Final residual = 7.69156e-07, No Iterations 8

mixingQuality = 0.40834
Time = 1.85s

ExecutionTime = 39.5354 s  ClockTime = 39 s

scalarTransport write:
DILUPBiCGStab:  Solving for C, Initial residual = 0.000998355, Final residual = 7.28624e-07, No Iterations 8

mixingQuality = 0.40908
Time = 1.86s

ExecutionTime = 39.7074 s  ClockTime = 39 s

scalarTransport write:
DILUPBiCGStab:  Solving for C, Initial residual = 0.00098896, Final residual = 9.58619e-07, No Iterations 8

mixingQuality = 0.409814
Time = 1.87s

ExecutionTime = 39.8716 s  ClockTime = 40 s

scalarTransport write:
DILUPBiCGStab:  Solving for C, Initial residual = 0.000979573, Final residual = 9.9244e-07, No Iterations 8

mixingQuality = 0.410542
Time = 1.88s

ExecutionTime = 40.0364 s  ClockTime = 40 s

scalarTransport write:
DILUPBiCGStab:  Solving for C, Initial residual = 0.000970193, Final residual = 7.82056e-07, No Iterations 8

mixingQuality = 0.411263
Time = 1.89s

ExecutionTime = 40.2085 s  ClockTime = 40 s

scalarTransport write:
DILUPBiCGStab:  Solving for C, Initial residual = 0.00096082, Final residual = 7.69168e-07, No Iterations 8

mixingQuality = 0.411979
Time = 1.9s

ExecutionTime = 40.3803 s  ClockTime = 40 s

scalarTransport write:
DILUPBiCGStab:  Solving for C, Initial residual = 0.000951454, Final residual = 9.91945e-07, No Iterations 8

mixingQuality = 0.412688
Time = 1.91s

ExecutionTime = 40.5452 s  ClockTime = 40 s

scalarTransport write:
DILUPBiCGStab:  Solving for C, Initial residual = 0.000942101, Final residual = 9.60233e-07, No Iterations 8

mixingQuality = 0.413392
Time = 1.92s

ExecutionTime = 40.7099 s  ClockTime = 40 s

scalarTransport write:
DILUPBiCGStab:  Solving for C, Initial residual = 0.000932765, Final residual = 7.34508e-07, No Iterations 8

mixingQuality = 0.414089
Time = 1.93s

ExecutionTime = 40.8816 s  ClockTime = 41 s

scalarTransport write:
DILUPBiCGStab:  Solving for C, Initial residual = 0.000923444, Final residual = 7.25395e-07, No Iterations 8

mixingQuality = 0.41478
Time = 1.94s

ExecutionTime = 41.0535 s  ClockTime = 41 s

scalarTransport write:
DILUPBiCGStab:  Solving for C, Initial residual = 0.000914133, Final residual = 9.40786e-07, No Iterations 8

mixingQuality = 0.415465
Time = 1.95s

ExecutionTime = 41.2177 s  ClockTime = 41 s

scalarTransport write:
DILUPBiCGStab:  Solving for C, Initial residual = 0.000904839, Final residual = 9.63021e-07, No Iterations 7

mixingQuality = 0.416143
Time = 1.96s

ExecutionTime = 41.3742 s  ClockTime = 41 s

scalarTransport write:
DILUPBiCGStab:  Solving for C, Initial residual = 0.000895567, Final residual = 9.7752e-07, No Iterations 7

mixingQuality = 0.416816
Time = 1.97s

ExecutionTime = 41.5305 s  ClockTime = 41 s

scalarTransport write:
DILUPBiCGStab:  Solving for C, Initial residual = 0.000886311, Final residual = 7.25606e-07, No Iterations 8

mixingQuality = 0.417482
Time = 1.98s

ExecutionTime = 41.7023 s  ClockTime = 41 s

scalarTransport write:
DILUPBiCGStab:  Solving for C, Initial residual = 0.000877072, Final residual = 9.9614e-07, No Iterations 8

mixingQuality = 0.418143
Time = 1.99s

ExecutionTime = 41.8666 s  ClockTime = 42 s

scalarTransport write:
DILUPBiCGStab:  Solving for C, Initial residual = 0.000867848, Final residual = 9.79473e-07, No Iterations 7

mixingQuality = 0.418797
Time = 2s

ExecutionTime = 42.0231 s  ClockTime = 42 s

scalarTransport write:
DILUPBiCGStab:  Solving for C, Initial residual = 0.000858646, Final residual = 9.68693e-07, No Iterations 7

mixingQuality = 0.419445
Time = 2.01s

ExecutionTime = 42.1797 s  ClockTime = 42 s

scalarTransport write:
DILUPBiCGStab:  Solving for C, Initial residual = 0.000849465, Final residual = 9.81829e-07, No Iterations 7

mixingQuality = 0.420086
Time = 2.02s

ExecutionTime = 42.3363 s  ClockTime = 42 s

scalarTransport write:
DILUPBiCGStab:  Solving for C, Initial residual = 0.000840303, Final residual = 9.88172e-07, No Iterations 7

mixingQuality = 0.420722
Time = 2.03s

ExecutionTime = 42.4927 s  ClockTime = 42 s

scalarTransport write:
DILUPBiCGStab:  Solving for C, Initial residual = 0.000831162, Final residual = 9.8789e-07, No Iterations 7

mixingQuality = 0.421351
Time = 2.04s

ExecutionTime = 42.6491 s  ClockTime = 42 s

scalarTransport write:
DILUPBiCGStab:  Solving for C, Initial residual = 0.000822043, Final residual = 9.82644e-07, No Iterations 7

mixingQuality = 0.421975
Time = 2.05s

ExecutionTime = 42.8055 s  ClockTime = 43 s

scalarTransport write:
DILUPBiCGStab:  Solving for C, Initial residual = 0.000812948, Final residual = 9.74238e-07, No Iterations 7

mixingQuality = 0.422592
Time = 2.06s

ExecutionTime = 42.962 s  ClockTime = 43 s

scalarTransport write:
DILUPBiCGStab:  Solving for C, Initial residual = 0.000803876, Final residual = 9.64034e-07, No Iterations 7

mixingQuality = 0.423202
Time = 2.07s

ExecutionTime = 43.1186 s  ClockTime = 43 s

scalarTransport write:
DILUPBiCGStab:  Solving for C, Initial residual = 0.000794832, Final residual = 9.52881e-07, No Iterations 7

mixingQuality = 0.423807
Time = 2.08s

ExecutionTime = 43.2761 s  ClockTime = 43 s

scalarTransport write:
DILUPBiCGStab:  Solving for C, Initial residual = 0.000785814, Final residual = 9.41286e-07, No Iterations 7

mixingQuality = 0.424406
Time = 2.09s

ExecutionTime = 43.4335 s  ClockTime = 43 s

scalarTransport write:
DILUPBiCGStab:  Solving for C, Initial residual = 0.000776823, Final residual = 9.29531e-07, No Iterations 7

mixingQuality = 0.424998
Time = 2.1s

ExecutionTime = 43.59 s  ClockTime = 43 s

scalarTransport write:
DILUPBiCGStab:  Solving for C, Initial residual = 0.000767859, Final residual = 9.1778e-07, No Iterations 7

mixingQuality = 0.425584
Time = 2.11s

ExecutionTime = 43.7465 s  ClockTime = 44 s

scalarTransport write:
DILUPBiCGStab:  Solving for C, Initial residual = 0.000758924, Final residual = 9.06151e-07, No Iterations 7

mixingQuality = 0.426164
Time = 2.12s

ExecutionTime = 43.903 s  ClockTime = 44 s

scalarTransport write:
DILUPBiCGStab:  Solving for C, Initial residual = 0.000750018, Final residual = 8.94692e-07, No Iterations 7

mixingQuality = 0.426738
Time = 2.13s

ExecutionTime = 44.0595 s  ClockTime = 44 s

scalarTransport write:
DILUPBiCGStab:  Solving for C, Initial residual = 0.000741145, Final residual = 8.83419e-07, No Iterations 7

mixingQuality = 0.427306
Time = 2.14s

ExecutionTime = 44.2159 s  ClockTime = 44 s

scalarTransport write:
DILUPBiCGStab:  Solving for C, Initial residual = 0.000732304, Final residual = 8.7235e-07, No Iterations 7

mixingQuality = 0.427867
Time = 2.15s

ExecutionTime = 44.3725 s  ClockTime = 44 s

scalarTransport write:
DILUPBiCGStab:  Solving for C, Initial residual = 0.000723494, Final residual = 8.61458e-07, No Iterations 7

mixingQuality = 0.428423
Time = 2.16s

ExecutionTime = 44.5286 s  ClockTime = 44 s

scalarTransport write:
DILUPBiCGStab:  Solving for C, Initial residual = 0.00071472, Final residual = 8.50727e-07, No Iterations 7

mixingQuality = 0.428972
Time = 2.17s

ExecutionTime = 44.6851 s  ClockTime = 44 s

scalarTransport write:
DILUPBiCGStab:  Solving for C, Initial residual = 0.000705981, Final residual = 8.40146e-07, No Iterations 7

mixingQuality = 0.429516
Time = 2.18s

ExecutionTime = 44.8417 s  ClockTime = 45 s

scalarTransport write:
DILUPBiCGStab:  Solving for C, Initial residual = 0.000697278, Final residual = 8.29701e-07, No Iterations 7

mixingQuality = 0.430053
Time = 2.19s

ExecutionTime = 44.998 s  ClockTime = 45 s

scalarTransport write:
DILUPBiCGStab:  Solving for C, Initial residual = 0.000688612, Final residual = 8.19386e-07, No Iterations 7

mixingQuality = 0.430584
Time = 2.2s

ExecutionTime = 45.1541 s  ClockTime = 45 s

scalarTransport write:
DILUPBiCGStab:  Solving for C, Initial residual = 0.000679984, Final residual = 8.09202e-07, No Iterations 7

mixingQuality = 0.431109
Time = 2.21s

ExecutionTime = 45.3104 s  ClockTime = 45 s

scalarTransport write:
DILUPBiCGStab:  Solving for C, Initial residual = 0.000671395, Final residual = 7.99128e-07, No Iterations 7

mixingQuality = 0.431628
Time = 2.22s

ExecutionTime = 45.4666 s  ClockTime = 45 s

scalarTransport write:
DILUPBiCGStab:  Solving for C, Initial residual = 0.000662845, Final residual = 7.89152e-07, No Iterations 7

mixingQuality = 0.432141
Time = 2.23s

ExecutionTime = 45.6228 s  ClockTime = 45 s

scalarTransport write:
DILUPBiCGStab:  Solving for C, Initial residual = 0.000654334, Final residual = 7.79263e-07, No Iterations 7

mixingQuality = 0.432648
Time = 2.24s

ExecutionTime = 45.7789 s  ClockTime = 46 s

scalarTransport write:
DILUPBiCGStab:  Solving for C, Initial residual = 0.00064586, Final residual = 7.6945e-07, No Iterations 7

mixingQuality = 0.433149
Time = 2.25s

ExecutionTime = 45.9356 s  ClockTime = 46 s

scalarTransport write:
DILUPBiCGStab:  Solving for C, Initial residual = 0.000637424, Final residual = 7.5972e-07, No Iterations 7

mixingQuality = 0.433643
Time = 2.26s

ExecutionTime = 46.0923 s  ClockTime = 46 s

scalarTransport write:
DILUPBiCGStab:  Solving for C, Initial residual = 0.00062903, Final residual = 7.50074e-07, No Iterations 7

mixingQuality = 0.434132
Time = 2.27s

ExecutionTime = 46.2491 s  ClockTime = 46 s

scalarTransport write:
DILUPBiCGStab:  Solving for C, Initial residual = 0.000620683, Final residual = 7.40508e-07, No Iterations 7

mixingQuality = 0.434615
Time = 2.28s

ExecutionTime = 46.4049 s  ClockTime = 46 s

scalarTransport write:
DILUPBiCGStab:  Solving for C, Initial residual = 0.000612384, Final residual = 7.31022e-07, No Iterations 7

mixingQuality = 0.435092
Time = 2.29s

ExecutionTime = 46.561 s  ClockTime = 46 s

scalarTransport write:
DILUPBiCGStab:  Solving for C, Initial residual = 0.000604136, Final residual = 7.21619e-07, No Iterations 7

mixingQuality = 0.435564
Time = 2.3s

ExecutionTime = 46.7176 s  ClockTime = 47 s

scalarTransport write:
DILUPBiCGStab:  Solving for C, Initial residual = 0.000595944, Final residual = 7.12304e-07, No Iterations 7

mixingQuality = 0.436029
Time = 2.31s

ExecutionTime = 46.8738 s  ClockTime = 47 s

scalarTransport write:
DILUPBiCGStab:  Solving for C, Initial residual = 0.000587807, Final residual = 9.9563e-07, No Iterations 7

mixingQuality = 0.436488
Time = 2.32s

ExecutionTime = 47.0228 s  ClockTime = 47 s

scalarTransport write:
DILUPBiCGStab:  Solving for C, Initial residual = 0.000579728, Final residual = 8.15501e-07, No Iterations 7

mixingQuality = 0.436942
Time = 2.33s

ExecutionTime = 47.1717 s  ClockTime = 47 s

scalarTransport write:
DILUPBiCGStab:  Solving for C, Initial residual = 0.000571712, Final residual = 8.00875e-07, No Iterations 7

mixingQuality = 0.43739
Time = 2.34s

ExecutionTime = 47.3208 s  ClockTime = 47 s

scalarTransport write:
DILUPBiCGStab:  Solving for C, Initial residual = 0.000563756, Final residual = 7.81773e-07, No Iterations 7

mixingQuality = 0.437832
Time = 2.35s

ExecutionTime = 47.4702 s  ClockTime = 47 s

scalarTransport write:
DILUPBiCGStab:  Solving for C, Initial residual = 0.00055586, Final residual = 7.67334e-07, No Iterations 7

mixingQuality = 0.438268
Time = 2.36s

ExecutionTime = 47.6191 s  ClockTime = 47 s

scalarTransport write:
DILUPBiCGStab:  Solving for C, Initial residual = 0.000548023, Final residual = 7.55452e-07, No Iterations 7

mixingQuality = 0.438698
Time = 2.37s

ExecutionTime = 47.7678 s  ClockTime = 48 s

scalarTransport write:
DILUPBiCGStab:  Solving for C, Initial residual = 0.000540247, Final residual = 7.44564e-07, No Iterations 7

mixingQuality = 0.439123
Time = 2.38s

ExecutionTime = 47.9165 s  ClockTime = 48 s

scalarTransport write:
DILUPBiCGStab:  Solving for C, Initial residual = 0.000532531, Final residual = 7.34116e-07, No Iterations 7

mixingQuality = 0.439543
Time = 2.39s

ExecutionTime = 48.0653 s  ClockTime = 48 s

scalarTransport write:
DILUPBiCGStab:  Solving for C, Initial residual = 0.000524876, Final residual = 7.23935e-07, No Iterations 7

mixingQuality = 0.439956
Time = 2.4s

ExecutionTime = 48.214 s  ClockTime = 48 s

scalarTransport write:
DILUPBiCGStab:  Solving for C, Initial residual = 0.000517282, Final residual = 7.13917e-07, No Iterations 7

mixingQuality = 0.440364
Time = 2.41s

ExecutionTime = 48.3625 s  ClockTime = 48 s

scalarTransport write:
DILUPBiCGStab:  Solving for C, Initial residual = 0.00050975, Final residual = 7.04003e-07, No Iterations 7

mixingQuality = 0.440767
Time = 2.42s

ExecutionTime = 48.5118 s  ClockTime = 48 s

scalarTransport write:
DILUPBiCGStab:  Solving for C, Initial residual = 0.000502281, Final residual = 6.94169e-07, No Iterations 7

mixingQuality = 0.441163
Time = 2.43s

ExecutionTime = 48.6607 s  ClockTime = 48 s

scalarTransport write:
DILUPBiCGStab:  Solving for C, Initial residual = 0.000494875, Final residual = 6.84393e-07, No Iterations 7

mixingQuality = 0.441555
Time = 2.44s

ExecutionTime = 48.8094 s  ClockTime = 49 s

scalarTransport write:
DILUPBiCGStab:  Solving for C, Initial residual = 0.000487535, Final residual = 6.74669e-07, No Iterations 7

mixingQuality = 0.441941
Time = 2.45s

ExecutionTime = 48.9584 s  ClockTime = 49 s

scalarTransport write:
DILUPBiCGStab:  Solving for C, Initial residual = 0.000480259, Final residual = 6.65003e-07, No Iterations 7

mixingQuality = 0.442321
Time = 2.46s

ExecutionTime = 49.1074 s  ClockTime = 49 s

scalarTransport write:
DILUPBiCGStab:  Solving for C, Initial residual = 0.00047305, Final residual = 6.55398e-07, No Iterations 7

mixingQuality = 0.442697
Time = 2.47s

ExecutionTime = 49.2563 s  ClockTime = 49 s

scalarTransport write:
DILUPBiCGStab:  Solving for C, Initial residual = 0.000465907, Final residual = 6.45854e-07, No Iterations 7

mixingQuality = 0.443066
Time = 2.48s

ExecutionTime = 49.4053 s  ClockTime = 49 s

scalarTransport write:
DILUPBiCGStab:  Solving for C, Initial residual = 0.000458831, Final residual = 6.3638e-07, No Iterations 7

mixingQuality = 0.443431
Time = 2.49s

ExecutionTime = 49.554 s  ClockTime = 49 s

scalarTransport write:
DILUPBiCGStab:  Solving for C, Initial residual = 0.000451823, Final residual = 6.26978e-07, No Iterations 7

mixingQuality = 0.44379
Time = 2.5s

ExecutionTime = 49.7034 s  ClockTime = 50 s

scalarTransport write:
DILUPBiCGStab:  Solving for C, Initial residual = 0.000444883, Final residual = 6.17649e-07, No Iterations 7

mixingQuality = 0.444144
Time = 2.51s

ExecutionTime = 49.8526 s  ClockTime = 50 s

scalarTransport write:
DILUPBiCGStab:  Solving for C, Initial residual = 0.000438011, Final residual = 6.08384e-07, No Iterations 7

mixingQuality = 0.444493
Time = 2.52s

ExecutionTime = 50.0015 s  ClockTime = 50 s

scalarTransport write:
DILUPBiCGStab:  Solving for C, Initial residual = 0.000431207, Final residual = 5.99191e-07, No Iterations 7

mixingQuality = 0.444837
Time = 2.53s

ExecutionTime = 50.1509 s  ClockTime = 50 s

scalarTransport write:
DILUPBiCGStab:  Solving for C, Initial residual = 0.000424472, Final residual = 5.90067e-07, No Iterations 7

mixingQuality = 0.445175
Time = 2.54s

ExecutionTime = 50.3003 s  ClockTime = 50 s

scalarTransport write:
DILUPBiCGStab:  Solving for C, Initial residual = 0.000417806, Final residual = 5.81012e-07, No Iterations 7

mixingQuality = 0.445509
Time = 2.55s

ExecutionTime = 50.4492 s  ClockTime = 50 s

scalarTransport write:
DILUPBiCGStab:  Solving for C, Initial residual = 0.000411209, Final residual = 5.7203e-07, No Iterations 7

mixingQuality = 0.445837
Time = 2.56s

ExecutionTime = 50.599 s  ClockTime = 50 s

scalarTransport write:
DILUPBiCGStab:  Solving for C, Initial residual = 0.000404682, Final residual = 9.94942e-07, No Iterations 6

mixingQuality = 0.446161
Time = 2.57s

ExecutionTime = 50.7404 s  ClockTime = 51 s

scalarTransport write:
DILUPBiCGStab:  Solving for C, Initial residual = 0.000398244, Final residual = 5.13329e-07, No Iterations 7

mixingQuality = 0.446479
Time = 2.58s

ExecutionTime = 50.89 s  ClockTime = 51 s

scalarTransport write:
DILUPBiCGStab:  Solving for C, Initial residual = 0.000391867, Final residual = 4.95257e-07, No Iterations 7

mixingQuality = 0.446793
Time = 2.59s

ExecutionTime = 51.0388 s  ClockTime = 51 s

scalarTransport write:
DILUPBiCGStab:  Solving for C, Initial residual = 0.000385551, Final residual = 4.90942e-07, No Iterations 7

mixingQuality = 0.447102
Time = 2.6s

ExecutionTime = 51.1875 s  ClockTime = 51 s

scalarTransport write:
DILUPBiCGStab:  Solving for C, Initial residual = 0.000379304, Final residual = 9.70203e-07, No Iterations 6

mixingQuality = 0.447406
Time = 2.61s

ExecutionTime = 51.3287 s  ClockTime = 51 s

scalarTransport write:
DILUPBiCGStab:  Solving for C, Initial residual = 0.000373144, Final residual = 4.80338e-07, No Iterations 7

mixingQuality = 0.447705
Time = 2.62s

ExecutionTime = 51.4779 s  ClockTime = 51 s

scalarTransport write:
DILUPBiCGStab:  Solving for C, Initial residual = 0.000367045, Final residual = 4.62279e-07, No Iterations 7

mixingQuality = 0.448
Time = 2.63s

ExecutionTime = 51.6269 s  ClockTime = 51 s

scalarTransport write:
DILUPBiCGStab:  Solving for C, Initial residual = 0.000361006, Final residual = 9.53689e-07, No Iterations 6

mixingQuality = 0.44829
Time = 2.64s

ExecutionTime = 51.7679 s  ClockTime = 52 s

scalarTransport write:
DILUPBiCGStab:  Solving for C, Initial residual = 0.000355051, Final residual = 4.56894e-07, No Iterations 7

mixingQuality = 0.448575
Time = 2.65s

ExecutionTime = 51.9171 s  ClockTime = 52 s

scalarTransport write:
DILUPBiCGStab:  Solving for C, Initial residual = 0.000349156, Final residual = 9.88796e-07, No Iterations 6

mixingQuality = 0.448856
Time = 2.66s

ExecutionTime = 52.0583 s  ClockTime = 52 s

scalarTransport write:
DILUPBiCGStab:  Solving for C, Initial residual = 0.000343338, Final residual = 4.47399e-07, No Iterations 7

mixingQuality = 0.449133
Time = 2.67s

ExecutionTime = 52.2073 s  ClockTime = 52 s

scalarTransport write:
DILUPBiCGStab:  Solving for C, Initial residual = 0.00033758, Final residual = 9.82917e-07, No Iterations 6

mixingQuality = 0.449404
Time = 2.68s

ExecutionTime = 52.3482 s  ClockTime = 52 s

scalarTransport write:
DILUPBiCGStab:  Solving for C, Initial residual = 0.0003319, Final residual = 4.33957e-07, No Iterations 7

mixingQuality = 0.449672
Time = 2.69s

ExecutionTime = 52.4971 s  ClockTime = 52 s

scalarTransport write:
DILUPBiCGStab:  Solving for C, Initial residual = 0.000326281, Final residual = 9.62892e-07, No Iterations 6

mixingQuality = 0.449935
Time = 2.7s

ExecutionTime = 52.6378 s  ClockTime = 52 s

scalarTransport write:
DILUPBiCGStab:  Solving for C, Initial residual = 0.000320738, Final residual = 4.2023e-07, No Iterations 7

mixingQuality = 0.450194
Time = 2.71s

ExecutionTime = 52.7869 s  ClockTime = 53 s

scalarTransport write:
DILUPBiCGStab:  Solving for C, Initial residual = 0.000315256, Final residual = 9.40622e-07, No Iterations 6

mixingQuality = 0.450448
Time = 2.72s

ExecutionTime = 52.9279 s  ClockTime = 53 s

scalarTransport write:
DILUPBiCGStab:  Solving for C, Initial residual = 0.000309851, Final residual = 4.06963e-07, No Iterations 7

mixingQuality = 0.450699
Time = 2.73s

ExecutionTime = 53.0767 s  ClockTime = 53 s

scalarTransport write:
DILUPBiCGStab:  Solving for C, Initial residual = 0.000304506, Final residual = 9.19438e-07, No Iterations 6

mixingQuality = 0.450945
Time = 2.74s

ExecutionTime = 53.2176 s  ClockTime = 53 s

scalarTransport write:
DILUPBiCGStab:  Solving for C, Initial residual = 0.000299237, Final residual = 3.9425e-07, No Iterations 7

mixingQuality = 0.451187
Time = 2.75s

ExecutionTime = 53.3666 s  ClockTime = 53 s

scalarTransport write:
DILUPBiCGStab:  Solving for C, Initial residual = 0.00029403, Final residual = 8.99796e-07, No Iterations 6

mixingQuality = 0.451425
Time = 2.76s

ExecutionTime = 53.5075 s  ClockTime = 53 s

scalarTransport write:
DILUPBiCGStab:  Solving for C, Initial residual = 0.000288897, Final residual = 3.8216e-07, No Iterations 7

mixingQuality = 0.451658
Time = 2.77s

ExecutionTime = 53.6566 s  ClockTime = 53 s

scalarTransport write:
DILUPBiCGStab:  Solving for C, Initial residual = 0.000283826, Final residual = 8.81769e-07, No Iterations 6

mixingQuality = 0.451888
Time = 2.78s

ExecutionTime = 53.7983 s  ClockTime = 54 s

scalarTransport write:
DILUPBiCGStab:  Solving for C, Initial residual = 0.000278829, Final residual = 3.70713e-07, No Iterations 7

mixingQuality = 0.452114
Time = 2.79s

ExecutionTime = 53.9473 s  ClockTime = 54 s

scalarTransport write:
DILUPBiCGStab:  Solving for C, Initial residual = 0.000273893, Final residual = 8.6547e-07, No Iterations 6

mixingQuality = 0.452336
Time = 2.8s

ExecutionTime = 54.088 s  ClockTime = 54 s

scalarTransport write:
DILUPBiCGStab:  Solving for C, Initial residual = 0.000269031, Final residual = 3.60013e-07, No Iterations 7

mixingQuality = 0.452555
Time = 2.81s

ExecutionTime = 54.2369 s  ClockTime = 54 s

scalarTransport write:
DILUPBiCGStab:  Solving for C, Initial residual = 0.000264231, Final residual = 8.51089e-07, No Iterations 6

mixingQuality = 0.452769
Time = 2.82s

ExecutionTime = 54.3781 s  ClockTime = 54 s

scalarTransport write:
DILUPBiCGStab:  Solving for C, Initial residual = 0.000259503, Final residual = 3.50148e-07, No Iterations 7

mixingQuality = 0.45298
Time = 2.83s

ExecutionTime = 54.5274 s  ClockTime = 54 s

scalarTransport write:
DILUPBiCGStab:  Solving for C, Initial residual = 0.000254836, Final residual = 8.39035e-07, No Iterations 6

mixingQuality = 0.453187
Time = 2.84s

ExecutionTime = 54.668 s  ClockTime = 54 s

scalarTransport write:
DILUPBiCGStab:  Solving for C, Initial residual = 0.000250239, Final residual = 9.55815e-07, No Iterations 5

mixingQuality = 0.45339
Time = 2.85s

ExecutionTime = 54.7937 s  ClockTime = 55 s

scalarTransport write:
DILUPBiCGStab:  Solving for C, Initial residual = 0.000245715, Final residual = 9.48669e-07, No Iterations 5

mixingQuality = 0.45359
Time = 2.86s

ExecutionTime = 54.9196 s  ClockTime = 55 s

scalarTransport write:
DILUPBiCGStab:  Solving for C, Initial residual = 0.00024125, Final residual = 9.13686e-07, No Iterations 5

mixingQuality = 0.453786
Time = 2.87s

ExecutionTime = 55.0454 s  ClockTime = 55 s

scalarTransport write:
DILUPBiCGStab:  Solving for C, Initial residual = 0.000236848, Final residual = 8.92332e-07, No Iterations 5

mixingQuality = 0.453979
Time = 2.88s

ExecutionTime = 55.1709 s  ClockTime = 55 s

scalarTransport write:
DILUPBiCGStab:  Solving for C, Initial residual = 0.00023251, Final residual = 8.99613e-07, No Iterations 5

mixingQuality = 0.454168
Time = 2.89s

ExecutionTime = 55.2969 s  ClockTime = 55 s

scalarTransport write:
DILUPBiCGStab:  Solving for C, Initial residual = 0.000228232, Final residual = 9.96025e-07, No Iterations 5

mixingQuality = 0.454354
Time = 2.9s

ExecutionTime = 55.4225 s  ClockTime = 55 s

scalarTransport write:
DILUPBiCGStab:  Solving for C, Initial residual = 0.000224013, Final residual = 3.27801e-07, No Iterations 7

mixingQuality = 0.454537
Time = 2.91s

ExecutionTime = 55.5713 s  ClockTime = 55 s

scalarTransport write:
DILUPBiCGStab:  Solving for C, Initial residual = 0.000219875, Final residual = 8.19105e-07, No Iterations 6

mixingQuality = 0.454716
Time = 2.92s

ExecutionTime = 55.7124 s  ClockTime = 56 s

scalarTransport write:
DILUPBiCGStab:  Solving for C, Initial residual = 0.000215784, Final residual = 8.16345e-07, No Iterations 5

mixingQuality = 0.454892
Time = 2.93s

ExecutionTime = 55.8381 s  ClockTime = 56 s

scalarTransport write:
DILUPBiCGStab:  Solving for C, Initial residual = 0.000211759, Final residual = 7.99487e-07, No Iterations 5

mixingQuality = 0.455065
Time = 2.94s

ExecutionTime = 55.9637 s  ClockTime = 56 s

scalarTransport write:
DILUPBiCGStab:  Solving for C, Initial residual = 0.000207792, Final residual = 7.77704e-07, No Iterations 5

mixingQuality = 0.455234
Time = 2.95s

ExecutionTime = 56.0891 s  ClockTime = 56 s

scalarTransport write:
DILUPBiCGStab:  Solving for C, Initial residual = 0.000203884, Final residual = 7.8233e-07, No Iterations 5

mixingQuality = 0.455401
Time = 2.96s

ExecutionTime = 56.2149 s  ClockTime = 56 s

scalarTransport write:
DILUPBiCGStab:  Solving for C, Initial residual = 0.000200034, Final residual = 8.65436e-07, No Iterations 5

mixingQuality = 0.455564
Time = 2.97s

ExecutionTime = 56.3403 s  ClockTime = 56 s

scalarTransport write:
DILUPBiCGStab:  Solving for C, Initial residual = 0.000196241, Final residual = 2.84457e-07, No Iterations 7

mixingQuality = 0.455724
Time = 2.98s

ExecutionTime = 56.4891 s  ClockTime = 56 s

scalarTransport write:
DILUPBiCGStab:  Solving for C, Initial residual = 0.000192527, Final residual = 7.62668e-07, No Iterations 6

mixingQuality = 0.455882
Time = 2.99s

ExecutionTime = 56.6308 s  ClockTime = 56 s

scalarTransport write:
DILUPBiCGStab:  Solving for C, Initial residual = 0.00018886, Final residual = 7.09539e-07, No Iterations 5

mixingQuality = 0.456036
Time = 3s

ExecutionTime = 56.7564 s  ClockTime = 57 s

scalarTransport write:
DILUPBiCGStab:  Solving for C, Initial residual = 0.000185253, Final residual = 9.78575e-07, No Iterations 5

mixingQuality = 0.456187
Time = 3.01s

ExecutionTime = 56.8748 s  ClockTime = 57 s

scalarTransport write:
DILUPBiCGStab:  Solving for C, Initial residual = 0.000181725, Final residual = 8.00561e-07, No Iterations 5

mixingQuality = 0.456336
Time = 3.02s

ExecutionTime = 57.0002 s  ClockTime = 57 s

scalarTransport write:
DILUPBiCGStab:  Solving for C, Initial residual = 0.000178217, Final residual = 9.7227e-07, No Iterations 5

mixingQuality = 0.456482
Time = 3.03s

ExecutionTime = 57.1184 s  ClockTime = 57 s

scalarTransport write:
DILUPBiCGStab:  Solving for C, Initial residual = 0.000174803, Final residual = 7.75917e-07, No Iterations 5

mixingQuality = 0.456625
Time = 3.04s

ExecutionTime = 57.244 s  ClockTime = 57 s

scalarTransport write:
DILUPBiCGStab:  Solving for C, Initial residual = 0.000171404, Final residual = 9.30546e-07, No Iterations 5

mixingQuality = 0.456765
Time = 3.05s

ExecutionTime = 57.3621 s  ClockTime = 57 s

scalarTransport write:
DILUPBiCGStab:  Solving for C, Initial residual = 0.000168099, Final residual = 7.21146e-07, No Iterations 5

mixingQuality = 0.456903
Time = 3.06s

ExecutionTime = 57.4879 s  ClockTime = 57 s

scalarTransport write:
DILUPBiCGStab:  Solving for C, Initial residual = 0.000164812, Final residual = 8.83727e-07, No Iterations 5

mixingQuality = 0.457038
Time = 3.07s

ExecutionTime = 57.6066 s  ClockTime = 57 s

scalarTransport write:
DILUPBiCGStab:  Solving for C, Initial residual = 0.000161611, Final residual = 9.5271e-07, No Iterations 5

mixingQuality = 0.457171
Time = 3.08s

ExecutionTime = 57.7248 s  ClockTime = 58 s

scalarTransport write:
DILUPBiCGStab:  Solving for C, Initial residual = 0.000158475, Final residual = 8.17717e-07, No Iterations 5

mixingQuality = 0.457301
Time = 3.09s

ExecutionTime = 57.8504 s  ClockTime = 58 s

scalarTransport write:
DILUPBiCGStab:  Solving for C, Initial residual = 0.000155331, Final residual = 9.03552e-07, No Iterations 5

mixingQuality = 0.457428
Time = 3.1s

ExecutionTime = 57.9689 s  ClockTime = 58 s

scalarTransport write:
DILUPBiCGStab:  Solving for C, Initial residual = 0.000152293, Final residual = 7.01361e-07, No Iterations 5

mixingQuality = 0.457553
Time = 3.11s

ExecutionTime = 58.0947 s  ClockTime = 58 s

scalarTransport write:
DILUPBiCGStab:  Solving for C, Initial residual = 0.000149257, Final residual = 8.12353e-07, No Iterations 5

mixingQuality = 0.457675
Time = 3.12s

ExecutionTime = 58.2128 s  ClockTime = 58 s

scalarTransport write:
DILUPBiCGStab:  Solving for C, Initial residual = 0.000146312, Final residual = 8.72009e-07, No Iterations 5

mixingQuality = 0.457795
Time = 3.13s

ExecutionTime = 58.3308 s  ClockTime = 58 s

scalarTransport write:
DILUPBiCGStab:  Solving for C, Initial residual = 0.000143425, Final residual = 7.2582e-07, No Iterations 5

mixingQuality = 0.457913
Time = 3.14s

ExecutionTime = 58.4564 s  ClockTime = 58 s

scalarTransport write:
DILUPBiCGStab:  Solving for C, Initial residual = 0.000140533, Final residual = 7.97844e-07, No Iterations 5

mixingQuality = 0.458029
Time = 3.15s

ExecutionTime = 58.5745 s  ClockTime = 58 s

scalarTransport write:
DILUPBiCGStab:  Solving for C, Initial residual = 0.00013774, Final residual = 8.64541e-07, No Iterations 5

mixingQuality = 0.458142
Time = 3.16s

ExecutionTime = 58.6931 s  ClockTime = 59 s

scalarTransport write:
DILUPBiCGStab:  Solving for C, Initial residual = 0.000135001, Final residual = 7.13911e-07, No Iterations 5

mixingQuality = 0.458253
Time = 3.17s

ExecutionTime = 58.8189 s  ClockTime = 59 s

scalarTransport write:
DILUPBiCGStab:  Solving for C, Initial residual = 0.00013225, Final residual = 7.64777e-07, No Iterations 5

mixingQuality = 0.458361
Time = 3.18s

ExecutionTime = 58.937 s  ClockTime = 59 s

scalarTransport write:
DILUPBiCGStab:  Solving for C, Initial residual = 0.0001296, Final residual = 9.89012e-07, No Iterations 4

mixingQuality = 0.458468
Time = 3.19s

ExecutionTime = 59.0473 s  ClockTime = 59 s

scalarTransport write:
DILUPBiCGStab:  Solving for C, Initial residual = 0.000127029, Final residual = 9.89307e-07, No Iterations 4

mixingQuality = 0.458572
Time = 3.2s

ExecutionTime = 59.1583 s  ClockTime = 59 s

scalarTransport write:
DILUPBiCGStab:  Solving for C, Initial residual = 0.000124459, Final residual = 9.98191e-07, No Iterations 4

mixingQuality = 0.458674
Time = 3.21s

ExecutionTime = 59.2688 s  ClockTime = 59 s

scalarTransport write:
DILUPBiCGStab:  Solving for C, Initial residual = 0.000121925, Final residual = 9.86305e-07, No Iterations 4

mixingQuality = 0.458775
Time = 3.22s

ExecutionTime = 59.379 s  ClockTime = 59 s

scalarTransport write:
DILUPBiCGStab:  Solving for C, Initial residual = 0.00011944, Final residual = 9.64697e-07, No Iterations 4

mixingQuality = 0.458873
Time = 3.23s

ExecutionTime = 59.4893 s  ClockTime = 59 s

scalarTransport write:
DILUPBiCGStab:  Solving for C, Initial residual = 0.000117001, Final residual = 9.43048e-07, No Iterations 4

mixingQuality = 0.458969
Time = 3.24s

ExecutionTime = 59.5997 s  ClockTime = 59 s

scalarTransport write:
DILUPBiCGStab:  Solving for C, Initial residual = 0.000114605, Final residual = 9.21698e-07, No Iterations 4

mixingQuality = 0.459064
Time = 3.25s

ExecutionTime = 59.7101 s  ClockTime = 60 s

scalarTransport write:
DILUPBiCGStab:  Solving for C, Initial residual = 0.000112252, Final residual = 9.01113e-07, No Iterations 4

mixingQuality = 0.459156
Time = 3.26s

ExecutionTime = 59.8204 s  ClockTime = 60 s

scalarTransport write:
DILUPBiCGStab:  Solving for C, Initial residual = 0.000109941, Final residual = 8.81402e-07, No Iterations 4

mixingQuality = 0.459246
Time = 3.27s

ExecutionTime = 59.9306 s  ClockTime = 60 s

scalarTransport write:
DILUPBiCGStab:  Solving for C, Initial residual = 0.000107672, Final residual = 8.62332e-07, No Iterations 4

mixingQuality = 0.459335
Time = 3.28s

ExecutionTime = 60.041 s  ClockTime = 60 s

scalarTransport write:
DILUPBiCGStab:  Solving for C, Initial residual = 0.000105444, Final residual = 8.4369e-07, No Iterations 4

mixingQuality = 0.459422
Time = 3.29s

ExecutionTime = 60.1515 s  ClockTime = 60 s

scalarTransport write:
DILUPBiCGStab:  Solving for C, Initial residual = 0.000103256, Final residual = 8.25408e-07, No Iterations 4

mixingQuality = 0.459507
Time = 3.3s

ExecutionTime = 60.2619 s  ClockTime = 60 s

scalarTransport write:
DILUPBiCGStab:  Solving for C, Initial residual = 0.000101108, Final residual = 8.07491e-07, No Iterations 4

mixingQuality = 0.45959
Time = 3.31s

ExecutionTime = 60.3722 s  ClockTime = 60 s

scalarTransport write:
DILUPBiCGStab:  Solving for C, Initial residual = 9.90003e-05, Final residual = 7.89937e-07, No Iterations 4

mixingQuality = 0.459672
Time = 3.32s

ExecutionTime = 60.4825 s  ClockTime = 60 s

scalarTransport write:
DILUPBiCGStab:  Solving for C, Initial residual = 9.69316e-05, Final residual = 7.7273e-07, No Iterations 4

mixingQuality = 0.459752
Time = 3.33s

ExecutionTime = 60.5933 s  ClockTime = 60 s

scalarTransport write:
DILUPBiCGStab:  Solving for C, Initial residual = 9.49017e-05, Final residual = 7.55862e-07, No Iterations 4

mixingQuality = 0.45983
Time = 3.34s

ExecutionTime = 60.7042 s  ClockTime = 61 s

scalarTransport write:
DILUPBiCGStab:  Solving for C, Initial residual = 9.291e-05, Final residual = 7.39327e-07, No Iterations 4

mixingQuality = 0.459906
Time = 3.35s

ExecutionTime = 60.8147 s  ClockTime = 61 s

scalarTransport write:
DILUPBiCGStab:  Solving for C, Initial residual = 9.0956e-05, Final residual = 7.23123e-07, No Iterations 4

mixingQuality = 0.459981
Time = 3.36s

ExecutionTime = 60.9249 s  ClockTime = 61 s

scalarTransport write:
DILUPBiCGStab:  Solving for C, Initial residual = 8.90389e-05, Final residual = 7.07249e-07, No Iterations 4

mixingQuality = 0.460055
Time = 3.37s

ExecutionTime = 61.0356 s  ClockTime = 61 s

scalarTransport write:
DILUPBiCGStab:  Solving for C, Initial residual = 8.71583e-05, Final residual = 6.917e-07, No Iterations 4

mixingQuality = 0.460127
Time = 3.38s

ExecutionTime = 61.1462 s  ClockTime = 61 s

scalarTransport write:
DILUPBiCGStab:  Solving for C, Initial residual = 8.53135e-05, Final residual = 9.92088e-07, No Iterations 4

mixingQuality = 0.460197
Time = 3.39s

ExecutionTime = 61.2498 s  ClockTime = 61 s

scalarTransport write:
DILUPBiCGStab:  Solving for C, Initial residual = 8.35844e-05, Final residual = 9.6936e-07, No Iterations 4

mixingQuality = 0.460266
Time = 3.4s

ExecutionTime = 61.3529 s  ClockTime = 61 s

scalarTransport write:
DILUPBiCGStab:  Solving for C, Initial residual = 8.18263e-05, Final residual = 9.87577e-07, No Iterations 4

mixingQuality = 0.460333
Time = 3.41s

ExecutionTime = 61.4559 s  ClockTime = 61 s

scalarTransport write:
DILUPBiCGStab:  Solving for C, Initial residual = 8.00855e-05, Final residual = 9.94508e-07, No Iterations 4

mixingQuality = 0.460399
Time = 3.42s

ExecutionTime = 61.5585 s  ClockTime = 61 s

scalarTransport write:
DILUPBiCGStab:  Solving for C, Initial residual = 7.83793e-05, Final residual = 9.83732e-07, No Iterations 4

mixingQuality = 0.460464
Time = 3.43s

ExecutionTime = 61.6612 s  ClockTime = 61 s

scalarTransport write:
DILUPBiCGStab:  Solving for C, Initial residual = 7.67055e-05, Final residual = 9.61178e-07, No Iterations 4

mixingQuality = 0.460527
Time = 3.44s

ExecutionTime = 61.7641 s  ClockTime = 62 s

scalarTransport write:
DILUPBiCGStab:  Solving for C, Initial residual = 7.50624e-05, Final residual = 9.3644e-07, No Iterations 4

mixingQuality = 0.460589
Time = 3.45s

ExecutionTime = 61.8668 s  ClockTime = 62 s

scalarTransport write:
DILUPBiCGStab:  Solving for C, Initial residual = 7.34505e-05, Final residual = 9.13963e-07, No Iterations 4

mixingQuality = 0.46065
Time = 3.46s

ExecutionTime = 61.9699 s  ClockTime = 62 s

scalarTransport write:
DILUPBiCGStab:  Solving for C, Initial residual = 7.18697e-05, Final residual = 8.92875e-07, No Iterations 4

mixingQuality = 0.460709
Time = 3.47s

ExecutionTime = 62.0726 s  ClockTime = 62 s

scalarTransport write:
DILUPBiCGStab:  Solving for C, Initial residual = 7.03193e-05, Final residual = 8.72399e-07, No Iterations 4

mixingQuality = 0.460767
Time = 3.48s

ExecutionTime = 62.1754 s  ClockTime = 62 s

scalarTransport write:
DILUPBiCGStab:  Solving for C, Initial residual = 6.87984e-05, Final residual = 8.52507e-07, No Iterations 4

mixingQuality = 0.460824
Time = 3.49s

ExecutionTime = 62.2783 s  ClockTime = 62 s

scalarTransport write:
DILUPBiCGStab:  Solving for C, Initial residual = 6.73066e-05, Final residual = 8.33176e-07, No Iterations 4

mixingQuality = 0.46088
Time = 3.5s

ExecutionTime = 62.3814 s  ClockTime = 62 s

scalarTransport write:
DILUPBiCGStab:  Solving for C, Initial residual = 6.58436e-05, Final residual = 8.14361e-07, No Iterations 4

mixingQuality = 0.460934
Time = 3.51s

ExecutionTime = 62.484 s  ClockTime = 62 s

scalarTransport write:
DILUPBiCGStab:  Solving for C, Initial residual = 6.44091e-05, Final residual = 7.96021e-07, No Iterations 4

mixingQuality = 0.460987
Time = 3.52s

ExecutionTime = 62.587 s  ClockTime = 62 s

scalarTransport write:
DILUPBiCGStab:  Solving for C, Initial residual = 6.30029e-05, Final residual = 7.78106e-07, No Iterations 4

mixingQuality = 0.461039
Time = 3.53s

ExecutionTime = 62.6896 s  ClockTime = 63 s

scalarTransport write:
DILUPBiCGStab:  Solving for C, Initial residual = 6.16247e-05, Final residual = 7.60572e-07, No Iterations 4

mixingQuality = 0.46109
Time = 3.54s

ExecutionTime = 62.7927 s  ClockTime = 63 s

scalarTransport write:
DILUPBiCGStab:  Solving for C, Initial residual = 6.02744e-05, Final residual = 7.43391e-07, No Iterations 4

mixingQuality = 0.46114
Time = 3.55s

ExecutionTime = 62.8957 s  ClockTime = 63 s

scalarTransport write:
DILUPBiCGStab:  Solving for C, Initial residual = 5.89513e-05, Final residual = 7.26542e-07, No Iterations 4

mixingQuality = 0.461188
Time = 3.56s

ExecutionTime = 62.9987 s  ClockTime = 63 s

scalarTransport write:
DILUPBiCGStab:  Solving for C, Initial residual = 5.7655e-05, Final residual = 7.10023e-07, No Iterations 4

mixingQuality = 0.461236
Time = 3.57s

ExecutionTime = 63.1017 s  ClockTime = 63 s

scalarTransport write:
DILUPBiCGStab:  Solving for C, Initial residual = 5.63851e-05, Final residual = 6.93841e-07, No Iterations 4

mixingQuality = 0.461283
Time = 3.58s

ExecutionTime = 63.2045 s  ClockTime = 63 s

scalarTransport write:
DILUPBiCGStab:  Solving for C, Initial residual = 5.51411e-05, Final residual = 6.77994e-07, No Iterations 4

mixingQuality = 0.461328
Time = 3.59s

ExecutionTime = 63.3073 s  ClockTime = 63 s

scalarTransport write:
DILUPBiCGStab:  Solving for C, Initial residual = 5.39224e-05, Final residual = 9.9686e-07, No Iterations 3

mixingQuality = 0.461372
Time = 3.6s

ExecutionTime = 63.4024 s  ClockTime = 63 s

scalarTransport write:
DILUPBiCGStab:  Solving for C, Initial residual = 5.27364e-05, Final residual = 9.67266e-07, No Iterations 3

mixingQuality = 0.461416
Time = 3.61s

ExecutionTime = 63.4972 s  ClockTime = 63 s

scalarTransport write:
DILUPBiCGStab:  Solving for C, Initial residual = 5.16056e-05, Final residual = 9.80788e-07, No Iterations 3

mixingQuality = 0.461458
Time = 3.62s

ExecutionTime = 63.5927 s  ClockTime = 63 s

scalarTransport write:
DILUPBiCGStab:  Solving for C, Initial residual = 5.04872e-05, Final residual = 9.88059e-07, No Iterations 3

mixingQuality = 0.4615
Time = 3.63s

[...]

mixingQuality = 0.462674
Time = 4.09s

ExecutionTime = 67.8654 s  ClockTime = 68 s

scalarTransport write:
DILUPBiCGStab:  Solving for C, Initial residual = 1.68991e-05, Final residual = 6.18671e-07, No Iterations 3

mixingQuality = 0.462688
Time = 4.1s

ExecutionTime = 67.9531 s  ClockTime = 68 s

scalarTransport write:
DILUPBiCGStab:  Solving for C, Initial residual = 1.64952e-05, Final residual = 6.02826e-07, No Iterations 3

mixingQuality = 0.462701
Time = 4.11s

ExecutionTime = 68.0404 s  ClockTime = 68 s

scalarTransport write:
DILUPBiCGStab:  Solving for C, Initial residual = 1.61007e-05, Final residual = 5.87368e-07, No Iterations 3

mixingQuality = 0.462715
Time = 4.12s

ExecutionTime = 68.1281 s  ClockTime = 68 s

scalarTransport write:
DILUPBiCGStab:  Solving for C, Initial residual = 1.57154e-05, Final residual = 5.72319e-07, No Iterations 3

mixingQuality = 0.462728
Time = 4.13s

ExecutionTime = 68.2156 s  ClockTime = 68 s

scalarTransport write:
DILUPBiCGStab:  Solving for C, Initial residual = 1.5339e-05, Final residual = 9.98224e-07, No Iterations 2

mixingQuality = 0.46274
Time = 4.14s

ExecutionTime = 68.2949 s  ClockTime = 68 s

scalarTransport write:
DILUPBiCGStab:  Solving for C, Initial residual = 1.49914e-05, Final residual = 9.67667e-07, No Iterations 2

mixingQuality = 0.462752
Time = 4.15s

ExecutionTime = 68.3745 s  ClockTime = 68 s

scalarTransport write:
DILUPBiCGStab:  Solving for C, Initial residual = 1.46667e-05, Final residual = 9.65582e-07, No Iterations 2

mixingQuality = 0.462764
Time = 4.16s

ExecutionTime = 68.4542 s  ClockTime = 68 s

scalarTransport write:
DILUPBiCGStab:  Solving for C, Initial residual = 1.43532e-05, Final residual = 9.4335e-07, No Iterations 2

mixingQuality = 0.462776
Time = 4.17s

ExecutionTime = 68.5339 s  ClockTime = 68 s

scalarTransport write:
DILUPBiCGStab:  Solving for C, Initial residual = 1.40454e-05, Final residual = 9.21785e-07, No Iterations 2

mixingQuality = 0.462787
Time = 4.18s

ExecutionTime = 68.6138 s  ClockTime = 68 s

scalarTransport write:
DILUPBiCGStab:  Solving for C, Initial residual = 1.37431e-05, Final residual = 9.01967e-07, No Iterations 2

mixingQuality = 0.462798
Time = 4.19s

ExecutionTime = 68.6933 s  ClockTime = 69 s

scalarTransport write:
DILUPBiCGStab:  Solving for C, Initial residual = 1.34464e-05, Final residual = 8.82277e-07, No Iterations 2

mixingQuality = 0.462809
Time = 4.2s

ExecutionTime = 68.7728 s  ClockTime = 69 s

scalarTransport write:
DILUPBiCGStab:  Solving for C, Initial residual = 1.31553e-05, Final residual = 8.63137e-07, No Iterations 2

mixingQuality = 0.462819
Time = 4.21s

ExecutionTime = 68.8523 s  ClockTime = 69 s

scalarTransport write:
DILUPBiCGStab:  Solving for C, Initial residual = 1.28697e-05, Final residual = 8.44589e-07, No Iterations 2

mixingQuality = 0.46283
Time = 4.22s

ExecutionTime = 68.932 s  ClockTime = 69 s

scalarTransport write:
DILUPBiCGStab:  Solving for C, Initial residual = 1.25897e-05, Final residual = 8.26313e-07, No Iterations 2

mixingQuality = 0.46284
Time = 4.23s

ExecutionTime = 69.0117 s  ClockTime = 69 s

scalarTransport write:
DILUPBiCGStab:  Solving for C, Initial residual = 1.23151e-05, Final residual = 8.08148e-07, No Iterations 2

mixingQuality = 0.46285
Time = 4.24s

ExecutionTime = 69.092 s  ClockTime = 69 s

scalarTransport write:
DILUPBiCGStab:  Solving for C, Initial residual = 1.20458e-05, Final residual = 7.89934e-07, No Iterations 2

mixingQuality = 0.462859
Time = 4.25s

ExecutionTime = 69.1715 s  ClockTime = 69 s

scalarTransport write:
DILUPBiCGStab:  Solving for C, Initial residual = 1.1781e-05, Final residual = 7.71597e-07, No Iterations 2

mixingQuality = 0.462869
Time = 4.26s

ExecutionTime = 69.2508 s  ClockTime = 69 s

scalarTransport write:
DILUPBiCGStab:  Solving for C, Initial residual = 1.15198e-05, Final residual = 7.53201e-07, No Iterations 2

mixingQuality = 0.462878
Time = 4.27s

ExecutionTime = 69.3303 s  ClockTime = 69 s

scalarTransport write:
DILUPBiCGStab:  Solving for C, Initial residual = 1.12618e-05, Final residual = 7.34885e-07, No Iterations 2

mixingQuality = 0.462887
Time = 4.28s

ExecutionTime = 69.41 s  ClockTime = 69 s

scalarTransport write:
DILUPBiCGStab:  Solving for C, Initial residual = 1.10067e-05, Final residual = 7.16782e-07, No Iterations 2

mixingQuality = 0.462896
Time = 4.29s

ExecutionTime = 69.4896 s  ClockTime = 69 s

scalarTransport write:
DILUPBiCGStab:  Solving for C, Initial residual = 1.07548e-05, Final residual = 6.99002e-07, No Iterations 2

mixingQuality = 0.462905
Time = 4.3s

ExecutionTime = 69.569 s  ClockTime = 69 s

scalarTransport write:
DILUPBiCGStab:  Solving for C, Initial residual = 1.05063e-05, Final residual = 6.81607e-07, No Iterations 2

mixingQuality = 0.462913
Time = 4.31s

ExecutionTime = 69.6487 s  ClockTime = 69 s

scalarTransport write:
DILUPBiCGStab:  Solving for C, Initial residual = 1.02615e-05, Final residual = 6.64635e-07, No Iterations 2

mixingQuality = 0.462922
Time = 4.32s

ExecutionTime = 69.7288 s  ClockTime = 70 s

scalarTransport write:
DILUPBiCGStab:  Solving for C, Initial residual = 1.00209e-05, Final residual = 6.48096e-07, No Iterations 2

mixingQuality = 0.46293
Time = 4.33s

ExecutionTime = 69.8085 s  ClockTime = 70 s

scalarTransport write:
DILUPBiCGStab:  Solving for C, Initial residual = 9.78455e-06, Final residual = 6.31991e-07, No Iterations 2

mixingQuality = 0.462938
Time = 4.34s

ExecutionTime = 69.8881 s  ClockTime = 70 s

scalarTransport write:
DILUPBiCGStab:  Solving for C, Initial residual = 9.55268e-06, Final residual = 6.1631e-07, No Iterations 2

mixingQuality = 0.462945
Time = 4.35s

ExecutionTime = 69.9679 s  ClockTime = 70 s

scalarTransport write:
DILUPBiCGStab:  Solving for C, Initial residual = 9.32537e-06, Final residual = 6.01038e-07, No Iterations 2

mixingQuality = 0.462953
Time = 4.36s

ExecutionTime = 70.0474 s  ClockTime = 70 s

scalarTransport write:
DILUPBiCGStab:  Solving for C, Initial residual = 9.10267e-06, Final residual = 5.86159e-07, No Iterations 2

mixingQuality = 0.46296
Time = 4.37s

ExecutionTime = 70.1271 s  ClockTime = 70 s

scalarTransport write:
DILUPBiCGStab:  Solving for C, Initial residual = 8.88457e-06, Final residual = 5.71658e-07, No Iterations 2

mixingQuality = 0.462967
Time = 4.38s

ExecutionTime = 70.2068 s  ClockTime = 70 s

scalarTransport write:
DILUPBiCGStab:  Solving for C, Initial residual = 8.67105e-06, Final residual = 5.57522e-07, No Iterations 2

mixingQuality = 0.462974
Time = 4.39s

ExecutionTime = 70.2868 s  ClockTime = 70 s

scalarTransport write:
DILUPBiCGStab:  Solving for C, Initial residual = 8.46207e-06, Final residual = 5.4374e-07, No Iterations 2

mixingQuality = 0.462981
Time = 4.4s

ExecutionTime = 70.3663 s  ClockTime = 70 s

scalarTransport write:
DILUPBiCGStab:  Solving for C, Initial residual = 8.25757e-06, Final residual = 9.85088e-07, No Iterations 2

mixingQuality = 0.462988
Time = 4.41s

ExecutionTime = 70.4386 s  ClockTime = 70 s

scalarTransport write:
DILUPBiCGStab:  Solving for C, Initial residual = 8.07818e-06, Final residual = 9.28844e-07, No Iterations 2

mixingQuality = 0.462994
Time = 4.42s

ExecutionTime = 70.5108 s  ClockTime = 70 s

scalarTransport write:
DILUPBiCGStab:  Solving for C, Initial residual = 7.91722e-06, Final residual = 9.63278e-07, No Iterations 2

mixingQuality = 0.463001
Time = 4.43s

ExecutionTime = 70.5831 s  ClockTime = 70 s

scalarTransport write:
DILUPBiCGStab:  Solving for C, Initial residual = 7.71626e-06, Final residual = 9.75014e-07, No Iterations 2

mixingQuality = 0.463007
Time = 4.44s

ExecutionTime = 70.6553 s  ClockTime = 70 s

scalarTransport write:
DILUPBiCGStab:  Solving for C, Initial residual = 7.52169e-06, Final residual = 9.66576e-07, No Iterations 2

mixingQuality = 0.463013
Time = 4.45s

ExecutionTime = 70.7279 s  ClockTime = 71 s

scalarTransport write:
DILUPBiCGStab:  Solving for C, Initial residual = 7.36871e-06, Final residual = 9.60843e-07, No Iterations 2

mixingQuality = 0.463019
Time = 4.46s

ExecutionTime = 70.8005 s  ClockTime = 71 s

scalarTransport write:
DILUPBiCGStab:  Solving for C, Initial residual = 7.18928e-06, Final residual = 9.88652e-07, No Iterations 2

mixingQuality = 0.463025
Time = 4.47s

ExecutionTime = 70.8728 s  ClockTime = 71 s

scalarTransport write:
DILUPBiCGStab:  Solving for C, Initial residual = 7.02222e-06, Final residual = 5.54629e-07, No Iterations 2

mixingQuality = 0.463031
Time = 4.48s

ExecutionTime = 70.9524 s  ClockTime = 71 s

scalarTransport write:
DILUPBiCGStab:  Solving for C, Initial residual = 6.80505e-06, Final residual = 4.94373e-07, No Iterations 2

mixingQuality = 0.463036
Time = 4.49s

ExecutionTime = 71.0319 s  ClockTime = 71 s

scalarTransport write:
DILUPBiCGStab:  Solving for C, Initial residual = 6.62399e-06, Final residual = 4.76047e-07, No Iterations 2

mixingQuality = 0.463042
Time = 4.5s

ExecutionTime = 71.1113 s  ClockTime = 71 s

scalarTransport write:
DILUPBiCGStab:  Solving for C, Initial residual = 6.45039e-06, Final residual = 4.70083e-07, No Iterations 2

mixingQuality = 0.463047
Time = 4.51s

ExecutionTime = 71.191 s  ClockTime = 71 s

scalarTransport write:
DILUPBiCGStab:  Solving for C, Initial residual = 6.28205e-06, Final residual = 4.64834e-07, No Iterations 2

mixingQuality = 0.463052
Time = 4.52s

ExecutionTime = 71.2705 s  ClockTime = 71 s

scalarTransport write:
DILUPBiCGStab:  Solving for C, Initial residual = 6.11825e-06, Final residual = 4.59311e-07, No Iterations 2

mixingQuality = 0.463057
Time = 4.53s

ExecutionTime = 71.3502 s  ClockTime = 71 s

scalarTransport write:
DILUPBiCGStab:  Solving for C, Initial residual = 5.95842e-06, Final residual = 9.86531e-07, No Iterations 2

mixingQuality = 0.463062
Time = 4.54s

ExecutionTime = 71.4223 s  ClockTime = 71 s

scalarTransport write:
DILUPBiCGStab:  Solving for C, Initial residual = 5.82201e-06, Final residual = 3.16443e-07, No Iterations 3

mixingQuality = 0.463067
Time = 4.55s

ExecutionTime = 71.5099 s  ClockTime = 71 s

scalarTransport write:
DILUPBiCGStab:  Solving for C, Initial residual = 5.65679e-06, Final residual = 8.89979e-07, No Iterations 2

mixingQuality = 0.463072
Time = 4.56s

ExecutionTime = 71.5821 s  ClockTime = 71 s

scalarTransport write:
DILUPBiCGStab:  Solving for C, Initial residual = 5.52117e-06, Final residual = 8.47764e-07, No Iterations 2

mixingQuality = 0.463076
Time = 4.57s

ExecutionTime = 71.6617 s  ClockTime = 71 s

scalarTransport write:
DILUPBiCGStab:  Solving for C, Initial residual = 5.36789e-06, Final residual = 3.67281e-07, No Iterations 3

mixingQuality = 0.463081
Time = 4.58s

ExecutionTime = 71.7495 s  ClockTime = 72 s

scalarTransport write:
DILUPBiCGStab:  Solving for C, Initial residual = 5.20487e-06, Final residual = 8.4143e-07, No Iterations 2

mixingQuality = 0.463085
Time = 4.59s

ExecutionTime = 71.822 s  ClockTime = 72 s

scalarTransport write:
DILUPBiCGStab:  Solving for C, Initial residual = 5.08803e-06, Final residual = 9.92716e-07, No Iterations 1

mixingQuality = 0.463088
Time = 4.6s

ExecutionTime = 71.8862 s  ClockTime = 72 s

scalarTransport write:
DILUPBiCGStab:  Solving for C, Initial residual = 4.98441e-06, Final residual = 7.39782e-07, No Iterations 2

mixingQuality = 0.463093
Time = 4.61s

ExecutionTime = 71.9585 s  ClockTime = 72 s

scalarTransport write:
DILUPBiCGStab:  Solving for C, Initial residual = 4.86888e-06, Final residual = 9.57404e-07, No Iterations 1

mixingQuality = 0.463096
Time = 4.62s

ExecutionTime = 72.0227 s  ClockTime = 72 s

scalarTransport write:
DILUPBiCGStab:  Solving for C, Initial residual = 4.77652e-06, Final residual = 9.95921e-07, No Iterations 1

mixingQuality = 0.463099
Time = 4.63s

ExecutionTime = 72.0869 s  ClockTime = 72 s

scalarTransport write:
DILUPBiCGStab:  Solving for C, Initial residual = 4.69532e-06, Final residual = 5.93873e-07, No Iterations 2

mixingQuality = 0.463103
Time = 4.64s

ExecutionTime = 72.1589 s  ClockTime = 72 s

scalarTransport write:
DILUPBiCGStab:  Solving for C, Initial residual = 4.5895e-06, Final residual = 9.45115e-07, No Iterations 1

mixingQuality = 0.463106
Time = 4.65s

ExecutionTime = 72.2232 s  ClockTime = 72 s

scalarTransport write:
DILUPBiCGStab:  Solving for C, Initial residual = 4.50921e-06, Final residual = 9.77379e-07, No Iterations 1

mixingQuality = 0.463109
Time = 4.66s

ExecutionTime = 72.2873 s  ClockTime = 72 s

scalarTransport write:
DILUPBiCGStab:  Solving for C, Initial residual = 4.43284e-06, Final residual = 9.76922e-07, No Iterations 1

mixingQuality = 0.463112
Time = 4.67s

ExecutionTime = 72.3514 s  ClockTime = 72 s

scalarTransport write:
DILUPBiCGStab:  Solving for C, Initial residual = 4.35923e-06, Final residual = 9.70562e-07, No Iterations 1

mixingQuality = 0.463115
Time = 4.68s

ExecutionTime = 72.4155 s  ClockTime = 72 s

scalarTransport write:
DILUPBiCGStab:  Solving for C, Initial residual = 4.28712e-06, Final residual = 9.6305e-07, No Iterations 1

mixingQuality = 0.463118
Time = 4.69s

ExecutionTime = 72.4797 s  ClockTime = 72 s

scalarTransport write:
DILUPBiCGStab:  Solving for C, Initial residual = 4.21602e-06, Final residual = 9.5479e-07, No Iterations 1

mixingQuality = 0.463121
Time = 4.7s

ExecutionTime = 72.544 s  ClockTime = 72 s

scalarTransport write:
DILUPBiCGStab:  Solving for C, Initial residual = 4.14587e-06, Final residual = 9.46038e-07, No Iterations 1

mixingQuality = 0.463124
Time = 4.71s

ExecutionTime = 72.6084 s  ClockTime = 72 s

scalarTransport write:
DILUPBiCGStab:  Solving for C, Initial residual = 4.07663e-06, Final residual = 9.36989e-07, No Iterations 1

mixingQuality = 0.463127
Time = 4.72s

ExecutionTime = 72.6727 s  ClockTime = 73 s

scalarTransport write:
DILUPBiCGStab:  Solving for C, Initial residual = 4.00838e-06, Final residual = 9.27853e-07, No Iterations 1

mixingQuality = 0.46313
Time = 4.73s

ExecutionTime = 72.737 s  ClockTime = 73 s

scalarTransport write:
DILUPBiCGStab:  Solving for C, Initial residual = 3.94124e-06, Final residual = 9.18711e-07, No Iterations 1

mixingQuality = 0.463133
Time = 4.74s

ExecutionTime = 72.8012 s  ClockTime = 73 s

scalarTransport write:
DILUPBiCGStab:  Solving for C, Initial residual = 3.87537e-06, Final residual = 9.09494e-07, No Iterations 1

mixingQuality = 0.463135
Time = 4.75s

ExecutionTime = 72.8654 s  ClockTime = 73 s

scalarTransport write:
DILUPBiCGStab:  Solving for C, Initial residual = 3.81071e-06, Final residual = 9.00024e-07, No Iterations 1

mixingQuality = 0.463138
Time = 4.76s

ExecutionTime = 72.9294 s  ClockTime = 73 s

scalarTransport write:
DILUPBiCGStab:  Solving for C, Initial residual = 3.74696e-06, Final residual = 8.901e-07, No Iterations 1

mixingQuality = 0.46314
Time = 4.77s

ExecutionTime = 72.9935 s  ClockTime = 73 s

scalarTransport write:
DILUPBiCGStab:  Solving for C, Initial residual = 3.6837e-06, Final residual = 8.79628e-07, No Iterations 1

mixingQuality = 0.463143
Time = 4.78s

ExecutionTime = 73.058 s  ClockTime = 73 s

scalarTransport write:
DILUPBiCGStab:  Solving for C, Initial residual = 3.62061e-06, Final residual = 8.68669e-07, No Iterations 1

mixingQuality = 0.463146
Time = 4.79s

ExecutionTime = 73.1222 s  ClockTime = 73 s

scalarTransport write:
DILUPBiCGStab:  Solving for C, Initial residual = 3.55762e-06, Final residual = 8.57303e-07, No Iterations 1

mixingQuality = 0.463148
Time = 4.8s

ExecutionTime = 73.1863 s  ClockTime = 73 s

scalarTransport write:
DILUPBiCGStab:  Solving for C, Initial residual = 3.49482e-06, Final residual = 8.45489e-07, No Iterations 1

mixingQuality = 0.46315
Time = 4.81s

ExecutionTime = 73.2504 s  ClockTime = 73 s

scalarTransport write:
DILUPBiCGStab:  Solving for C, Initial residual = 3.43213e-06, Final residual = 8.33143e-07, No Iterations 1

mixingQuality = 0.463153
Time = 4.82s

ExecutionTime = 73.3148 s  ClockTime = 73 s

scalarTransport write:
DILUPBiCGStab:  Solving for C, Initial residual = 3.3694e-06, Final residual = 8.20372e-07, No Iterations 1

mixingQuality = 0.463155
Time = 4.83s

ExecutionTime = 73.379 s  ClockTime = 73 s

scalarTransport write:
DILUPBiCGStab:  Solving for C, Initial residual = 3.30666e-06, Final residual = 8.07381e-07, No Iterations 1

mixingQuality = 0.463157
Time = 4.84s

ExecutionTime = 73.4432 s  ClockTime = 73 s

scalarTransport write:
DILUPBiCGStab:  Solving for C, Initial residual = 3.24421e-06, Final residual = 7.94091e-07, No Iterations 1

mixingQuality = 0.46316
Time = 4.85s

ExecutionTime = 73.5075 s  ClockTime = 73 s

scalarTransport write:
DILUPBiCGStab:  Solving for C, Initial residual = 3.18201e-06, Final residual = 7.80349e-07, No Iterations 1

mixingQuality = 0.463162
Time = 4.86s

ExecutionTime = 73.5717 s  ClockTime = 73 s

scalarTransport write:
DILUPBiCGStab:  Solving for C, Initial residual = 3.11967e-06, Final residual = 7.66138e-07, No Iterations 1

mixingQuality = 0.463164
Time = 4.87s

ExecutionTime = 73.636 s  ClockTime = 73 s

scalarTransport write:
DILUPBiCGStab:  Solving for C, Initial residual = 3.05709e-06, Final residual = 7.51696e-07, No Iterations 1

mixingQuality = 0.463166
Time = 4.88s

ExecutionTime = 73.7006 s  ClockTime = 74 s

scalarTransport write:
DILUPBiCGStab:  Solving for C, Initial residual = 2.99461e-06, Final residual = 7.37138e-07, No Iterations 1

mixingQuality = 0.463168
Time = 4.89s

ExecutionTime = 73.7649 s  ClockTime = 74 s

scalarTransport write:
DILUPBiCGStab:  Solving for C, Initial residual = 2.93249e-06, Final residual = 7.22451e-07, No Iterations 1

mixingQuality = 0.46317
Time = 4.9s

ExecutionTime = 73.829 s  ClockTime = 74 s

scalarTransport write:
DILUPBiCGStab:  Solving for C, Initial residual = 2.87079e-06, Final residual = 7.07684e-07, No Iterations 1

mixingQuality = 0.463172
Time = 4.91s

ExecutionTime = 73.8931 s  ClockTime = 74 s

scalarTransport write:
DILUPBiCGStab:  Solving for C, Initial residual = 2.80955e-06, Final residual = 6.92914e-07, No Iterations 1

mixingQuality = 0.463174
Time = 4.92s

ExecutionTime = 73.9582 s  ClockTime = 74 s

scalarTransport write:
DILUPBiCGStab:  Solving for C, Initial residual = 2.74889e-06, Final residual = 6.78167e-07, No Iterations 1

mixingQuality = 0.463176
Time = 4.93s

ExecutionTime = 74.0236 s  ClockTime = 74 s

scalarTransport write:
DILUPBiCGStab:  Solving for C, Initial residual = 2.68888e-06, Final residual = 6.63468e-07, No Iterations 1

mixingQuality = 0.463178
Time = 4.94s

ExecutionTime = 74.0879 s  ClockTime = 74 s

scalarTransport write:
DILUPBiCGStab:  Solving for C, Initial residual = 2.62955e-06, Final residual = 6.48855e-07, No Iterations 1

mixingQuality = 0.46318
Time = 4.95s

ExecutionTime = 74.1521 s  ClockTime = 74 s

scalarTransport write:
DILUPBiCGStab:  Solving for C, Initial residual = 2.57093e-06, Final residual = 6.34355e-07, No Iterations 1

mixingQuality = 0.463182
Time = 4.96s

ExecutionTime = 74.2165 s  ClockTime = 74 s

scalarTransport write:
DILUPBiCGStab:  Solving for C, Initial residual = 2.51308e-06, Final residual = 6.19985e-07, No Iterations 1

mixingQuality = 0.463183
Time = 4.97s

ExecutionTime = 74.2808 s  ClockTime = 74 s

scalarTransport write:
DILUPBiCGStab:  Solving for C, Initial residual = 2.45602e-06, Final residual = 6.05757e-07, No Iterations 1

mixingQuality = 0.463185
Time = 4.98s

ExecutionTime = 74.3449 s  ClockTime = 74 s

scalarTransport write:
DILUPBiCGStab:  Solving for C, Initial residual = 2.39976e-06, Final residual = 9.95527e-07, No Iterations 1

mixingQuality = 0.463187
Time = 4.99s

ExecutionTime = 74.4019 s  ClockTime = 74 s

scalarTransport write:
DILUPBiCGStab:  Solving for C, Initial residual = 2.37216e-06, Final residual = 9.17486e-07, No Iterations 1

mixingQuality = 0.463188
Time = 5s

ExecutionTime = 74.5879 s  ClockTime = 75 s

scalarTransport write:
DILUPBiCGStab:  Solving for C, Initial residual = 2.33694e-06, Final residual = 6.18382e-07, No Iterations 1

mixingQuality = 0.46319
End

