nohup: ignoring input
/*---------------------------------------------------------------------------*\
  =========                 |
  \\      /  F ield         | OpenFOAM: The Open Source CFD Toolbox
   \\    /   O peration     | Website:  https://openfoam.org
    \\  /    A nd           | Version:  11
     \\/     M anipulation  |
\*---------------------------------------------------------------------------*/
Build  : 11-c219200fdb8b
Exec   : foamRun
Date   : May 09 2024
Time   : 15:30:06
Host   : "cda-server-4"
PID    : 4036183
I/O    : uncollated
Case   : /home/takken/mmft-CFD-cases/DiffusiveMixing/Xi-mixer/concentrationField
nProcs : 1
sigFpe : Enabling floating point exception trapping (FOAM_SIGFPE).
fileModificationChecking : Monitoring run-time modified files using timeStampMaster (fileModificationSkew 10)
allowSystemOperations : Allowing user-supplied system call operations

// * * * * * * * * * * * * * * * * * * * * * * * * * * * * * * * * * * * * * //
Create time

Create mesh for time = 0

Selecting solver functions
Selecting solver incompressibleFluid
Selecting viscosity model constant
Selecting turbulence model type laminar
Selecting laminar stress model Stokes
No MRF models present

Courant Number mean: 58.2803 max: 358.291

PIMPLE: No convergence criteria found


PIMPLE: Operating solver in transient mode with 1 outer corrector
PIMPLE: Operating solver in PISO mode



Starting time loop

Using dynamicCode for coded mixingQualityCheck at line 59 in "/home/takken/mmft-CFD-cases/DiffusiveMixing/Xi-mixer/concentrationField/system/controlDict/functions/mixingQualityCheck"
Creating new library in "dynamicCode/mixingQualityCheck/platforms/linux64GccDPInt32Opt/lib/libmixingQualityCheck_c02623056b6dcd01f746e751a7731192a5e7c92a.so"
"/opt/openfoam11/etc/codeTemplates/dynamicCode/codedFunctionObjectTemplate.C" "/home/takken/mmft-CFD-cases/DiffusiveMixing/Xi-mixer/concentrationField/dynamicCode/mixingQualityCheck/codedFunctionObjectTemplate.C"
"/opt/openfoam11/etc/codeTemplates/dynamicCode/codedFunctionObjectTemplate.H" "/home/takken/mmft-CFD-cases/DiffusiveMixing/Xi-mixer/concentrationField/dynamicCode/mixingQualityCheck/codedFunctionObjectTemplate.H"
Invoking "wmake -s libso /home/takken/mmft-CFD-cases/DiffusiveMixing/Xi-mixer/concentrationField/dynamicCode/mixingQualityCheck"
wmake libso /home/takken/mmft-CFD-cases/DiffusiveMixing/Xi-mixer/concentrationField/dynamicCode/mixingQualityCheck
    ln: ./lnInclude
    wmkdep: codedFunctionObjectTemplate.C
    Ctoo: codedFunctionObjectTemplate.C
    ld: /home/takken/mmft-CFD-cases/DiffusiveMixing/Xi-mixer/concentrationField/dynamicCode/mixingQualityCheck/../platforms/linux64GccDPInt32Opt/lib/libmixingQualityCheck_c02623056b6dcd01f746e751a7731192a5e7c92a.so
scalarTransport write:
DILUPBiCGStab:  Solving for C, Initial residual = 1, Final residual = 9.8826e-07, No Iterations 106

mixingQuality = 0.0095956
Time = 0.01s

ExecutionTime = 3.55712 s  ClockTime = 6 s

scalarTransport write:
DILUPBiCGStab:  Solving for C, Initial residual = 0.28063, Final residual = 7.99853e-07, No Iterations 114

mixingQuality = 0.0231119
Time = 0.02s

ExecutionTime = 5.09593 s  ClockTime = 8 s

scalarTransport write:
DILUPBiCGStab:  Solving for C, Initial residual = 0.134962, Final residual = 3.66482e-07, No Iterations 104

mixingQuality = 0.0371701
Time = 0.03s

ExecutionTime = 6.49191 s  ClockTime = 9 s

scalarTransport write:
DILUPBiCGStab:  Solving for C, Initial residual = 0.0921785, Final residual = 7.3479e-07, No Iterations 95

mixingQuality = 0.0510571
Time = 0.04s

ExecutionTime = 7.77039 s  ClockTime = 10 s

scalarTransport write:
DILUPBiCGStab:  Solving for C, Initial residual = 0.0703212, Final residual = 7.10504e-07, No Iterations 91

mixingQuality = 0.0645489
Time = 0.05s

ExecutionTime = 8.99572 s  ClockTime = 11 s

scalarTransport write:
DILUPBiCGStab:  Solving for C, Initial residual = 0.0584631, Final residual = 9.89552e-07, No Iterations 85

mixingQuality = 0.0779416
Time = 0.06s

ExecutionTime = 10.1433 s  ClockTime = 13 s

scalarTransport write:
DILUPBiCGStab:  Solving for C, Initial residual = 0.0505102, Final residual = 9.77497e-07, No Iterations 83

mixingQuality = 0.0913097
Time = 0.07s

ExecutionTime = 11.2702 s  ClockTime = 14 s

scalarTransport write:
DILUPBiCGStab:  Solving for C, Initial residual = 0.0447793, Final residual = 9.92355e-07, No Iterations 88

mixingQuality = 0.10466
Time = 0.08s

ExecutionTime = 12.4626 s  ClockTime = 15 s

scalarTransport write:
DILUPBiCGStab:  Solving for C, Initial residual = 0.040442, Final residual = 5.07515e-07, No Iterations 92

mixingQuality = 0.118001
Time = 0.09s

ExecutionTime = 13.7005 s  ClockTime = 16 s

scalarTransport write:
DILUPBiCGStab:  Solving for C, Initial residual = 0.0370369, Final residual = 9.84184e-07, No Iterations 93

mixingQuality = 0.13134
Time = 0.1s

ExecutionTime = 14.9584 s  ClockTime = 17 s

scalarTransport write:
DILUPBiCGStab:  Solving for C, Initial residual = 0.0342965, Final residual = 1.93187e-07, No Iterations 101

mixingQuality = 0.144677
Time = 0.11s

ExecutionTime = 16.3135 s  ClockTime = 19 s

scalarTransport write:
DILUPBiCGStab:  Solving for C, Initial residual = 0.0320468, Final residual = 7.35063e-07, No Iterations 100

mixingQuality = 0.158013
Time = 0.12s

ExecutionTime = 17.6562 s  ClockTime = 20 s

scalarTransport write:
DILUPBiCGStab:  Solving for C, Initial residual = 0.0301685, Final residual = 7.78421e-07, No Iterations 99

mixingQuality = 0.171349
Time = 0.13s

ExecutionTime = 18.9859 s  ClockTime = 21 s

scalarTransport write:
DILUPBiCGStab:  Solving for C, Initial residual = 0.0285763, Final residual = 9.61324e-07, No Iterations 98

mixingQuality = 0.184684
Time = 0.14s

ExecutionTime = 20.309 s  ClockTime = 23 s

scalarTransport write:
DILUPBiCGStab:  Solving for C, Initial residual = 0.0272171, Final residual = 9.02769e-07, No Iterations 98

mixingQuality = 0.198018
Time = 0.15s

ExecutionTime = 21.6261 s  ClockTime = 24 s

scalarTransport write:
DILUPBiCGStab:  Solving for C, Initial residual = 0.0260594, Final residual = 9.34942e-07, No Iterations 98

mixingQuality = 0.211351
Time = 0.16s

ExecutionTime = 22.9469 s  ClockTime = 25 s

scalarTransport write:
DILUPBiCGStab:  Solving for C, Initial residual = 0.0250767, Final residual = 9.05822e-07, No Iterations 97

mixingQuality = 0.224679
Time = 0.17s

ExecutionTime = 24.2557 s  ClockTime = 27 s

scalarTransport write:
DILUPBiCGStab:  Solving for C, Initial residual = 0.0242384, Final residual = 8.51929e-07, No Iterations 98

mixingQuality = 0.238
Time = 0.18s

ExecutionTime = 25.5739 s  ClockTime = 28 s

scalarTransport write:
DILUPBiCGStab:  Solving for C, Initial residual = 0.0235154, Final residual = 9.46668e-07, No Iterations 99

mixingQuality = 0.251308
Time = 0.19s

ExecutionTime = 26.9148 s  ClockTime = 29 s

scalarTransport write:
DILUPBiCGStab:  Solving for C, Initial residual = 0.0228869, Final residual = 8.51024e-07, No Iterations 97

mixingQuality = 0.264597
Time = 0.2s

ExecutionTime = 28.2181 s  ClockTime = 31 s

scalarTransport write:
DILUPBiCGStab:  Solving for C, Initial residual = 0.022337, Final residual = 7.15483e-07, No Iterations 99

mixingQuality = 0.277856
Time = 0.21s

ExecutionTime = 29.5484 s  ClockTime = 32 s

scalarTransport write:
DILUPBiCGStab:  Solving for C, Initial residual = 0.0218552, Final residual = 8.08785e-07, No Iterations 99

mixingQuality = 0.29107
Time = 0.22s

ExecutionTime = 30.8771 s  ClockTime = 33 s

scalarTransport write:
DILUPBiCGStab:  Solving for C, Initial residual = 0.0214286, Final residual = 9.44488e-07, No Iterations 98

mixingQuality = 0.304222
Time = 0.23s

ExecutionTime = 32.1927 s  ClockTime = 35 s

scalarTransport write:
DILUPBiCGStab:  Solving for C, Initial residual = 0.0210443, Final residual = 7.67503e-07, No Iterations 99

mixingQuality = 0.317288
Time = 0.24s

ExecutionTime = 33.5212 s  ClockTime = 36 s

scalarTransport write:
DILUPBiCGStab:  Solving for C, Initial residual = 0.0206881, Final residual = 5.03694e-07, No Iterations 101

mixingQuality = 0.330242
Time = 0.25s

ExecutionTime = 34.8762 s  ClockTime = 37 s

scalarTransport write:
DILUPBiCGStab:  Solving for C, Initial residual = 0.0203462, Final residual = 9.91874e-07, No Iterations 96

mixingQuality = 0.343054
Time = 0.26s

ExecutionTime = 36.1718 s  ClockTime = 39 s

scalarTransport write:
DILUPBiCGStab:  Solving for C, Initial residual = 0.020007, Final residual = 6.27167e-07, No Iterations 98

mixingQuality = 0.355691
Time = 0.27s

ExecutionTime = 37.4881 s  ClockTime = 40 s

scalarTransport write:
DILUPBiCGStab:  Solving for C, Initial residual = 0.019662, Final residual = 6.20661e-07, No Iterations 98

mixingQuality = 0.36812
Time = 0.28s

ExecutionTime = 38.8041 s  ClockTime = 41 s

scalarTransport write:
DILUPBiCGStab:  Solving for C, Initial residual = 0.0193057, Final residual = 6.10958e-07, No Iterations 100

mixingQuality = 0.380307
Time = 0.29s

ExecutionTime = 40.1461 s  ClockTime = 43 s

scalarTransport write:
DILUPBiCGStab:  Solving for C, Initial residual = 0.0189322, Final residual = 6.27042e-07, No Iterations 96

mixingQuality = 0.39222
Time = 0.3s

ExecutionTime = 41.4363 s  ClockTime = 44 s

scalarTransport write:
DILUPBiCGStab:  Solving for C, Initial residual = 0.0185369, Final residual = 5.52222e-07, No Iterations 97

mixingQuality = 0.403829
Time = 0.31s

ExecutionTime = 42.7396 s  ClockTime = 45 s

scalarTransport write:
DILUPBiCGStab:  Solving for C, Initial residual = 0.0181182, Final residual = 3.36573e-07, No Iterations 99

mixingQuality = 0.415111
Time = 0.32s

ExecutionTime = 44.0683 s  ClockTime = 47 s

scalarTransport write:
DILUPBiCGStab:  Solving for C, Initial residual = 0.0176764, Final residual = 6.28095e-07, No Iterations 98

mixingQuality = 0.426043
Time = 0.33s

ExecutionTime = 45.3845 s  ClockTime = 48 s

scalarTransport write:
DILUPBiCGStab:  Solving for C, Initial residual = 0.0172137, Final residual = 7.94967e-07, No Iterations 97

mixingQuality = 0.436612
Time = 0.34s

ExecutionTime = 46.6883 s  ClockTime = 49 s

scalarTransport write:
DILUPBiCGStab:  Solving for C, Initial residual = 0.0167337, Final residual = 2.57667e-07, No Iterations 98

mixingQuality = 0.446807
Time = 0.35s

ExecutionTime = 48.0084 s  ClockTime = 50 s

scalarTransport write:
DILUPBiCGStab:  Solving for C, Initial residual = 0.0162411, Final residual = 2.94295e-07, No Iterations 98

mixingQuality = 0.456622
Time = 0.36s

ExecutionTime = 49.3281 s  ClockTime = 52 s

scalarTransport write:
DILUPBiCGStab:  Solving for C, Initial residual = 0.0157408, Final residual = 9.55898e-07, No Iterations 92

mixingQuality = 0.466056
Time = 0.37s

ExecutionTime = 50.5842 s  ClockTime = 53 s

scalarTransport write:
DILUPBiCGStab:  Solving for C, Initial residual = 0.0152374, Final residual = 8.60219e-07, No Iterations 88

mixingQuality = 0.475114
Time = 0.38s

ExecutionTime = 51.8004 s  ClockTime = 54 s

scalarTransport write:
DILUPBiCGStab:  Solving for C, Initial residual = 0.0147357, Final residual = 6.89766e-07, No Iterations 88

mixingQuality = 0.483801
Time = 0.39s

ExecutionTime = 53.0185 s  ClockTime = 55 s

scalarTransport write:
DILUPBiCGStab:  Solving for C, Initial residual = 0.0142396, Final residual = 9.32476e-07, No Iterations 85

mixingQuality = 0.492127
Time = 0.4s

ExecutionTime = 54.2024 s  ClockTime = 57 s

scalarTransport write:
DILUPBiCGStab:  Solving for C, Initial residual = 0.0137525, Final residual = 9.86561e-07, No Iterations 84

mixingQuality = 0.500103
Time = 0.41s

ExecutionTime = 55.3728 s  ClockTime = 58 s

scalarTransport write:
DILUPBiCGStab:  Solving for C, Initial residual = 0.0132773, Final residual = 9.75501e-07, No Iterations 83

mixingQuality = 0.507741
Time = 0.42s

ExecutionTime = 56.5234 s  ClockTime = 59 s

scalarTransport write:
DILUPBiCGStab:  Solving for C, Initial residual = 0.012816, Final residual = 9.48451e-07, No Iterations 81

mixingQuality = 0.515054
Time = 0.43s

ExecutionTime = 57.6462 s  ClockTime = 60 s

scalarTransport write:
DILUPBiCGStab:  Solving for C, Initial residual = 0.0123704, Final residual = 7.59512e-07, No Iterations 81

mixingQuality = 0.522058
Time = 0.44s

ExecutionTime = 58.7702 s  ClockTime = 61 s

scalarTransport write:
DILUPBiCGStab:  Solving for C, Initial residual = 0.0119414, Final residual = 7.6757e-07, No Iterations 81

mixingQuality = 0.528766
Time = 0.45s

ExecutionTime = 59.8958 s  ClockTime = 62 s

scalarTransport write:
DILUPBiCGStab:  Solving for C, Initial residual = 0.0115298, Final residual = 8.298e-07, No Iterations 79

mixingQuality = 0.535192
Time = 0.46s

ExecutionTime = 60.9936 s  ClockTime = 63 s

scalarTransport write:
DILUPBiCGStab:  Solving for C, Initial residual = 0.0111358, Final residual = 9.81923e-07, No Iterations 76

mixingQuality = 0.54135
Time = 0.47s

ExecutionTime = 62.0585 s  ClockTime = 65 s

scalarTransport write:
DILUPBiCGStab:  Solving for C, Initial residual = 0.0107596, Final residual = 9.58779e-07, No Iterations 76

mixingQuality = 0.547254
Time = 0.48s

ExecutionTime = 63.121 s  ClockTime = 66 s

scalarTransport write:
DILUPBiCGStab:  Solving for C, Initial residual = 0.0104007, Final residual = 8.35728e-07, No Iterations 76

mixingQuality = 0.552916
Time = 0.49s

ExecutionTime = 64.1785 s  ClockTime = 67 s

scalarTransport write:
DILUPBiCGStab:  Solving for C, Initial residual = 0.0100584, Final residual = 9.22064e-07, No Iterations 73

mixingQuality = 0.558348
Time = 0.5s

ExecutionTime = 65.1949 s  ClockTime = 68 s

scalarTransport write:
DILUPBiCGStab:  Solving for C, Initial residual = 0.00973164, Final residual = 8.12243e-07, No Iterations 72

mixingQuality = 0.563562
Time = 0.51s

ExecutionTime = 66.199 s  ClockTime = 69 s

scalarTransport write:
DILUPBiCGStab:  Solving for C, Initial residual = 0.00941112, Final residual = 9.07265e-07, No Iterations 70

mixingQuality = 0.568567
Time = 0.52s

ExecutionTime = 67.1799 s  ClockTime = 70 s

scalarTransport write:
DILUPBiCGStab:  Solving for C, Initial residual = 0.00906513, Final residual = 5.71117e-07, No Iterations 70

mixingQuality = 0.573373
Time = 0.53s

ExecutionTime = 68.1734 s  ClockTime = 71 s

scalarTransport write:
DILUPBiCGStab:  Solving for C, Initial residual = 0.00873487, Final residual = 9.45639e-07, No Iterations 70

mixingQuality = 0.577989
Time = 0.54s

ExecutionTime = 69.1459 s  ClockTime = 72 s

scalarTransport write:
DILUPBiCGStab:  Solving for C, Initial residual = 0.00841889, Final residual = 7.89281e-07, No Iterations 68

mixingQuality = 0.582423
Time = 0.55s

ExecutionTime = 70.1282 s  ClockTime = 73 s

scalarTransport write:
DILUPBiCGStab:  Solving for C, Initial residual = 0.00811577, Final residual = 5.78447e-07, No Iterations 69

mixingQuality = 0.586683
Time = 0.56s

ExecutionTime = 71.0921 s  ClockTime = 74 s

scalarTransport write:
DILUPBiCGStab:  Solving for C, Initial residual = 0.00782411, Final residual = 6.07572e-07, No Iterations 67

mixingQuality = 0.590774
Time = 0.57s

ExecutionTime = 72.0315 s  ClockTime = 75 s

scalarTransport write:
DILUPBiCGStab:  Solving for C, Initial residual = 0.00754266, Final residual = 5.55075e-07, No Iterations 67

mixingQuality = 0.594703
Time = 0.58s

ExecutionTime = 72.971 s  ClockTime = 75 s

scalarTransport write:
DILUPBiCGStab:  Solving for C, Initial residual = 0.00727036, Final residual = 9.6937e-07, No Iterations 58

mixingQuality = 0.598476
Time = 0.59s

ExecutionTime = 73.7983 s  ClockTime = 76 s

scalarTransport write:
DILUPBiCGStab:  Solving for C, Initial residual = 0.00700611, Final residual = 8.22481e-07, No Iterations 60

mixingQuality = 0.602097
Time = 0.6s

ExecutionTime = 74.6456 s  ClockTime = 77 s

scalarTransport write:
DILUPBiCGStab:  Solving for C, Initial residual = 0.00674901, Final residual = 9.76936e-07, No Iterations 55

mixingQuality = 0.605571
Time = 0.61s

ExecutionTime = 75.4324 s  ClockTime = 78 s

scalarTransport write:
DILUPBiCGStab:  Solving for C, Initial residual = 0.00649819, Final residual = 9.21733e-07, No Iterations 53

mixingQuality = 0.608903
Time = 0.62s

ExecutionTime = 76.1813 s  ClockTime = 79 s

scalarTransport write:
DILUPBiCGStab:  Solving for C, Initial residual = 0.00625291, Final residual = 9.44712e-07, No Iterations 50

mixingQuality = 0.612095
Time = 0.63s

ExecutionTime = 76.8903 s  ClockTime = 79 s

scalarTransport write:
DILUPBiCGStab:  Solving for C, Initial residual = 0.00601259, Final residual = 9.81482e-07, No Iterations 44

mixingQuality = 0.615153
Time = 0.64s

ExecutionTime = 77.5271 s  ClockTime = 80 s

scalarTransport write:
DILUPBiCGStab:  Solving for C, Initial residual = 0.00577667, Final residual = 9.47441e-07, No Iterations 43

mixingQuality = 0.618079
Time = 0.65s

ExecutionTime = 78.1413 s  ClockTime = 81 s

scalarTransport write:
DILUPBiCGStab:  Solving for C, Initial residual = 0.00554484, Final residual = 8.70524e-07, No Iterations 43

mixingQuality = 0.620876
Time = 0.66s

ExecutionTime = 78.7561 s  ClockTime = 81 s

scalarTransport write:
DILUPBiCGStab:  Solving for C, Initial residual = 0.0053167, Final residual = 9.52366e-07, No Iterations 39

mixingQuality = 0.623548
Time = 0.67s

ExecutionTime = 79.3245 s  ClockTime = 82 s

scalarTransport write:
DILUPBiCGStab:  Solving for C, Initial residual = 0.00509217, Final residual = 7.73121e-07, No Iterations 40

mixingQuality = 0.626097
Time = 0.68s

ExecutionTime = 79.8985 s  ClockTime = 82 s

scalarTransport write:
DILUPBiCGStab:  Solving for C, Initial residual = 0.00487099, Final residual = 9.45883e-07, No Iterations 38

mixingQuality = 0.628527
Time = 0.69s

ExecutionTime = 80.4523 s  ClockTime = 83 s

scalarTransport write:
DILUPBiCGStab:  Solving for C, Initial residual = 0.00465325, Final residual = 7.73642e-07, No Iterations 39

mixingQuality = 0.63084
Time = 0.7s

ExecutionTime = 81.0127 s  ClockTime = 84 s

scalarTransport write:
DILUPBiCGStab:  Solving for C, Initial residual = 0.00443881, Final residual = 8.68596e-07, No Iterations 38

mixingQuality = 0.63304
Time = 0.71s

ExecutionTime = 81.562 s  ClockTime = 84 s

scalarTransport write:
DILUPBiCGStab:  Solving for C, Initial residual = 0.00422789, Final residual = 7.24964e-07, No Iterations 37

mixingQuality = 0.635128
Time = 0.72s

ExecutionTime = 82.0958 s  ClockTime = 85 s

scalarTransport write:
DILUPBiCGStab:  Solving for C, Initial residual = 0.00402049, Final residual = 5.97555e-07, No Iterations 36

mixingQuality = 0.637108
Time = 0.73s

ExecutionTime = 82.6158 s  ClockTime = 85 s

scalarTransport write:
DILUPBiCGStab:  Solving for C, Initial residual = 0.00381686, Final residual = 7.88119e-07, No Iterations 35

mixingQuality = 0.638983
Time = 0.74s

ExecutionTime = 83.1232 s  ClockTime = 86 s

scalarTransport write:
DILUPBiCGStab:  Solving for C, Initial residual = 0.00361724, Final residual = 8.86586e-07, No Iterations 34

mixingQuality = 0.640755
Time = 0.75s

ExecutionTime = 83.6178 s  ClockTime = 86 s

scalarTransport write:
DILUPBiCGStab:  Solving for C, Initial residual = 0.00342186, Final residual = 9.91096e-07, No Iterations 32

mixingQuality = 0.642427
Time = 0.76s

ExecutionTime = 84.0853 s  ClockTime = 87 s

scalarTransport write:
DILUPBiCGStab:  Solving for C, Initial residual = 0.0032312, Final residual = 9.19962e-07, No Iterations 32

mixingQuality = 0.644003
Time = 0.77s

ExecutionTime = 84.5517 s  ClockTime = 87 s

scalarTransport write:
DILUPBiCGStab:  Solving for C, Initial residual = 0.00304573, Final residual = 9.73903e-07, No Iterations 29

mixingQuality = 0.645485
Time = 0.78s

ExecutionTime = 84.9853 s  ClockTime = 88 s

scalarTransport write:
DILUPBiCGStab:  Solving for C, Initial residual = 0.00286543, Final residual = 8.64617e-07, No Iterations 29

mixingQuality = 0.646876
Time = 0.79s

ExecutionTime = 85.4125 s  ClockTime = 88 s

scalarTransport write:
DILUPBiCGStab:  Solving for C, Initial residual = 0.00269093, Final residual = 9.83536e-07, No Iterations 29

mixingQuality = 0.648181
Time = 0.8s

ExecutionTime = 85.8398 s  ClockTime = 88 s

scalarTransport write:
DILUPBiCGStab:  Solving for C, Initial residual = 0.00252235, Final residual = 8.22349e-07, No Iterations 29

mixingQuality = 0.649401
Time = 0.81s

ExecutionTime = 86.2668 s  ClockTime = 89 s

scalarTransport write:
DILUPBiCGStab:  Solving for C, Initial residual = 0.00235968, Final residual = 8.87664e-07, No Iterations 27

mixingQuality = 0.65054
Time = 0.82s

ExecutionTime = 86.6681 s  ClockTime = 89 s

scalarTransport write:
DILUPBiCGStab:  Solving for C, Initial residual = 0.00220316, Final residual = 9.5508e-07, No Iterations 25

mixingQuality = 0.651602
Time = 0.83s

ExecutionTime = 87.0481 s  ClockTime = 90 s

scalarTransport write:
DILUPBiCGStab:  Solving for C, Initial residual = 0.00205305, Final residual = 9.04216e-07, No Iterations 27

mixingQuality = 0.65259
Time = 0.84s

ExecutionTime = 87.4476 s  ClockTime = 90 s

scalarTransport write:
DILUPBiCGStab:  Solving for C, Initial residual = 0.00190919, Final residual = 9.78676e-07, No Iterations 25

mixingQuality = 0.653507
Time = 0.85s

ExecutionTime = 87.8195 s  ClockTime = 90 s

scalarTransport write:
DILUPBiCGStab:  Solving for C, Initial residual = 0.00177184, Final residual = 9.23305e-07, No Iterations 24

mixingQuality = 0.654356
Time = 0.86s

ExecutionTime = 88.1861 s  ClockTime = 91 s

scalarTransport write:
DILUPBiCGStab:  Solving for C, Initial residual = 0.0016408, Final residual = 8.6306e-07, No Iterations 24

mixingQuality = 0.655142
Time = 0.87s

ExecutionTime = 88.5464 s  ClockTime = 91 s

scalarTransport write:
DILUPBiCGStab:  Solving for C, Initial residual = 0.00151652, Final residual = 7.81859e-07, No Iterations 25

mixingQuality = 0.655868
Time = 0.88s

ExecutionTime = 88.9198 s  ClockTime = 91 s

scalarTransport write:
DILUPBiCGStab:  Solving for C, Initial residual = 0.00139863, Final residual = 9.81545e-07, No Iterations 23

mixingQuality = 0.656536
Time = 0.89s

ExecutionTime = 89.2717 s  ClockTime = 92 s

scalarTransport write:
DILUPBiCGStab:  Solving for C, Initial residual = 0.00128733, Final residual = 8.23862e-07, No Iterations 23

mixingQuality = 0.657151
Time = 0.9s

ExecutionTime = 89.619 s  ClockTime = 92 s

scalarTransport write:
DILUPBiCGStab:  Solving for C, Initial residual = 0.00118229, Final residual = 9.38765e-07, No Iterations 21

mixingQuality = 0.657714
Time = 0.91s

ExecutionTime = 89.9452 s  ClockTime = 92 s

scalarTransport write:
DILUPBiCGStab:  Solving for C, Initial residual = 0.00108373, Final residual = 6.93701e-07, No Iterations 23

mixingQuality = 0.658231
Time = 0.92s

ExecutionTime = 90.2917 s  ClockTime = 93 s

scalarTransport write:
DILUPBiCGStab:  Solving for C, Initial residual = 0.000991244, Final residual = 9.72028e-07, No Iterations 21

mixingQuality = 0.658703
Time = 0.93s

ExecutionTime = 90.6167 s  ClockTime = 93 s

scalarTransport write:
DILUPBiCGStab:  Solving for C, Initial residual = 0.000905181, Final residual = 9.95334e-07, No Iterations 22

mixingQuality = 0.659134
Time = 0.94s

ExecutionTime = 90.9501 s  ClockTime = 94 s

scalarTransport write:
DILUPBiCGStab:  Solving for C, Initial residual = 0.000824801, Final residual = 9.25295e-07, No Iterations 20

mixingQuality = 0.659526
Time = 0.95s

ExecutionTime = 91.2566 s  ClockTime = 94 s

scalarTransport write:
DILUPBiCGStab:  Solving for C, Initial residual = 0.000750236, Final residual = 9.84096e-07, No Iterations 21

mixingQuality = 0.659883
Time = 0.96s

ExecutionTime = 91.5817 s  ClockTime = 94 s

scalarTransport write:
DILUPBiCGStab:  Solving for C, Initial residual = 0.000681583, Final residual = 7.6995e-07, No Iterations 21

mixingQuality = 0.660206
Time = 0.97s

ExecutionTime = 91.901 s  ClockTime = 94 s

scalarTransport write:
DILUPBiCGStab:  Solving for C, Initial residual = 0.000617356, Final residual = 6.66751e-07, No Iterations 20

mixingQuality = 0.660499
Time = 0.98s

ExecutionTime = 92.2062 s  ClockTime = 95 s

scalarTransport write:
DILUPBiCGStab:  Solving for C, Initial residual = 0.000558634, Final residual = 8.43908e-07, No Iterations 19

mixingQuality = 0.660764
Time = 0.99s

ExecutionTime = 92.4985 s  ClockTime = 95 s

scalarTransport write:
DILUPBiCGStab:  Solving for C, Initial residual = 0.000504575, Final residual = 9.24939e-07, No Iterations 18

mixingQuality = 0.661003
Time = 1s

ExecutionTime = 92.777 s  ClockTime = 95 s

scalarTransport write:
DILUPBiCGStab:  Solving for C, Initial residual = 0.000454925, Final residual = 9.56206e-07, No Iterations 17

mixingQuality = 0.661218
Time = 1.01s

ExecutionTime = 93.0506 s  ClockTime = 96 s

scalarTransport write:
DILUPBiCGStab:  Solving for C, Initial residual = 0.000409535, Final residual = 6.56796e-07, No Iterations 18

mixingQuality = 0.661412
Time = 1.02s

ExecutionTime = 93.3303 s  ClockTime = 96 s

scalarTransport write:
DILUPBiCGStab:  Solving for C, Initial residual = 0.000367846, Final residual = 8.75271e-07, No Iterations 16

mixingQuality = 0.661585
Time = 1.03s

ExecutionTime = 93.582 s  ClockTime = 96 s

scalarTransport write:
DILUPBiCGStab:  Solving for C, Initial residual = 0.000330128, Final residual = 9.32984e-07, No Iterations 16

mixingQuality = 0.661741
Time = 1.04s

ExecutionTime = 93.8382 s  ClockTime = 96 s

scalarTransport write:
DILUPBiCGStab:  Solving for C, Initial residual = 0.000295762, Final residual = 6.55773e-07, No Iterations 18

mixingQuality = 0.66188
Time = 1.05s

ExecutionTime = 94.1168 s  ClockTime = 97 s

scalarTransport write:
DILUPBiCGStab:  Solving for C, Initial residual = 0.000264231, Final residual = 9.73676e-07, No Iterations 15

mixingQuality = 0.662004
Time = 1.06s

ExecutionTime = 94.3621 s  ClockTime = 97 s

scalarTransport write:
DILUPBiCGStab:  Solving for C, Initial residual = 0.000235985, Final residual = 9.05436e-07, No Iterations 14

mixingQuality = 0.662114
Time = 1.07s

ExecutionTime = 94.5933 s  ClockTime = 97 s

scalarTransport write:
DILUPBiCGStab:  Solving for C, Initial residual = 0.000210256, Final residual = 9.30383e-07, No Iterations 14

mixingQuality = 0.662213
Time = 1.08s

ExecutionTime = 94.818 s  ClockTime = 97 s

scalarTransport write:
DILUPBiCGStab:  Solving for C, Initial residual = 0.000187127, Final residual = 9.02554e-07, No Iterations 14

mixingQuality = 0.6623
Time = 1.09s

ExecutionTime = 95.0501 s  ClockTime = 98 s

scalarTransport write:
DILUPBiCGStab:  Solving for C, Initial residual = 0.000166252, Final residual = 9.55652e-07, No Iterations 13

mixingQuality = 0.662378
Time = 1.1s

ExecutionTime = 95.2674 s  ClockTime = 98 s

scalarTransport write:
DILUPBiCGStab:  Solving for C, Initial residual = 0.000147452, Final residual = 9.57954e-07, No Iterations 13

mixingQuality = 0.662446
Time = 1.11s

ExecutionTime = 95.4794 s  ClockTime = 98 s

scalarTransport write:
DILUPBiCGStab:  Solving for C, Initial residual = 0.000130484, Final residual = 9.21225e-07, No Iterations 12

mixingQuality = 0.662507
Time = 1.12s

ExecutionTime = 95.6767 s  ClockTime = 98 s

scalarTransport write:
DILUPBiCGStab:  Solving for C, Initial residual = 0.000115351, Final residual = 8.17938e-07, No Iterations 12

mixingQuality = 0.66256
Time = 1.13s

ExecutionTime = 95.8751 s  ClockTime = 98 s

scalarTransport write:
DILUPBiCGStab:  Solving for C, Initial residual = 0.000101741, Final residual = 6.42087e-07, No Iterations 12

mixingQuality = 0.662607
Time = 1.14s

ExecutionTime = 96.0737 s  ClockTime = 99 s

scalarTransport write:
DILUPBiCGStab:  Solving for C, Initial residual = 8.95418e-05, Final residual = 9.63629e-07, No Iterations 10

mixingQuality = 0.662648
Time = 1.15s

ExecutionTime = 96.2517 s  ClockTime = 99 s

scalarTransport write:
DILUPBiCGStab:  Solving for C, Initial residual = 7.88241e-05, Final residual = 6.15332e-07, No Iterations 12

mixingQuality = 0.662685
Time = 1.16s

ExecutionTime = 96.4497 s  ClockTime = 99 s

scalarTransport write:
DILUPBiCGStab:  Solving for C, Initial residual = 6.90992e-05, Final residual = 9.16253e-07, No Iterations 10

mixingQuality = 0.662717
Time = 1.17s

ExecutionTime = 96.627 s  ClockTime = 99 s

scalarTransport write:
DILUPBiCGStab:  Solving for C, Initial residual = 6.08845e-05, Final residual = 4.93774e-07, No Iterations 12

mixingQuality = 0.662744
Time = 1.18s

ExecutionTime = 96.8267 s  ClockTime = 99 s

scalarTransport write:
DILUPBiCGStab:  Solving for C, Initial residual = 5.30794e-05, Final residual = 6.293e-07, No Iterations 10

mixingQuality = 0.662769
Time = 1.19s

ExecutionTime = 96.9976 s  ClockTime = 100 s

scalarTransport write:
DILUPBiCGStab:  Solving for C, Initial residual = 4.64315e-05, Final residual = 9.02835e-07, No Iterations 9

mixingQuality = 0.66279
Time = 1.2s

ExecutionTime = 97.1613 s  ClockTime = 100 s

scalarTransport write:
DILUPBiCGStab:  Solving for C, Initial residual = 4.06302e-05, Final residual = 9.27775e-07, No Iterations 8

mixingQuality = 0.662808
Time = 1.21s

ExecutionTime = 97.3071 s  ClockTime = 100 s

scalarTransport write:
DILUPBiCGStab:  Solving for C, Initial residual = 3.5395e-05, Final residual = 7.23804e-07, No Iterations 9

mixingQuality = 0.662824
Time = 1.22s

ExecutionTime = 97.465 s  ClockTime = 100 s

scalarTransport write:
DILUPBiCGStab:  Solving for C, Initial residual = 3.08459e-05, Final residual = 9.13755e-07, No Iterations 12

mixingQuality = 0.662838
Time = 1.23s

ExecutionTime = 97.6627 s  ClockTime = 100 s

scalarTransport write:
DILUPBiCGStab:  Solving for C, Initial residual = 2.7113e-05, Final residual = 8.3052e-07, No Iterations 11

mixingQuality = 0.66285
Time = 1.24s

ExecutionTime = 97.8472 s  ClockTime = 100 s

scalarTransport write:
DILUPBiCGStab:  Solving for C, Initial residual = 2.35901e-05, Final residual = 8.55144e-07, No Iterations 11

mixingQuality = 0.662861
Time = 1.25s

ExecutionTime = 98.0387 s  ClockTime = 101 s

scalarTransport write:
DILUPBiCGStab:  Solving for C, Initial residual = 2.05092e-05, Final residual = 9.62667e-07, No Iterations 7

mixingQuality = 0.66287
Time = 1.26s

ExecutionTime = 98.1762 s  ClockTime = 101 s

scalarTransport write:
DILUPBiCGStab:  Solving for C, Initial residual = 1.75993e-05, Final residual = 5.89831e-07, No Iterations 13

mixingQuality = 0.662878
Time = 1.27s

ExecutionTime = 98.388 s  ClockTime = 101 s

scalarTransport write:
DILUPBiCGStab:  Solving for C, Initial residual = 1.52498e-05, Final residual = 8.55613e-07, No Iterations 7

mixingQuality = 0.662884
Time = 1.28s

ExecutionTime = 98.5193 s  ClockTime = 101 s

scalarTransport write:
DILUPBiCGStab:  Solving for C, Initial residual = 1.32221e-05, Final residual = 7.1931e-07, No Iterations 7

mixingQuality = 0.66289
Time = 1.29s

ExecutionTime = 98.651 s  ClockTime = 101 s

scalarTransport write:
DILUPBiCGStab:  Solving for C, Initial residual = 1.13426e-05, Final residual = 7.7233e-07, No Iterations 8

mixingQuality = 0.662895
Time = 1.3s

ExecutionTime = 98.7954 s  ClockTime = 101 s

scalarTransport write:
DILUPBiCGStab:  Solving for C, Initial residual = 9.92349e-06, Final residual = 8.82082e-07, No Iterations 8

mixingQuality = 0.662899
Time = 1.31s

ExecutionTime = 98.9466 s  ClockTime = 102 s

scalarTransport write:
DILUPBiCGStab:  Solving for C, Initial residual = 8.67006e-06, Final residual = 9.11376e-07, No Iterations 7

mixingQuality = 0.662903
Time = 1.32s

ExecutionTime = 99.084 s  ClockTime = 102 s

scalarTransport write:
DILUPBiCGStab:  Solving for C, Initial residual = 7.57582e-06, Final residual = 8.94211e-07, No Iterations 6

mixingQuality = 0.662906
Time = 1.33s

ExecutionTime = 99.2015 s  ClockTime = 102 s

scalarTransport write:
DILUPBiCGStab:  Solving for C, Initial residual = 6.49876e-06, Final residual = 9.52132e-07, No Iterations 4

mixingQuality = 0.662908
Time = 1.34s

ExecutionTime = 99.2987 s  ClockTime = 102 s

scalarTransport write:
DILUPBiCGStab:  Solving for C, Initial residual = 5.58307e-06, Final residual = 8.14602e-07, No Iterations 4

mixingQuality = 0.662911
Time = 1.35s

ExecutionTime = 99.3975 s  ClockTime = 102 s

scalarTransport write:
DILUPBiCGStab:  Solving for C, Initial residual = 4.78254e-06, Final residual = 7.08804e-07, No Iterations 5

mixingQuality = 0.662913
Time = 1.36s

ExecutionTime = 99.5018 s  ClockTime = 102 s

scalarTransport write:
DILUPBiCGStab:  Solving for C, Initial residual = 4.17917e-06, Final residual = 7.85027e-07, No Iterations 4

mixingQuality = 0.662914
Time = 1.37s

ExecutionTime = 99.5924 s  ClockTime = 102 s

scalarTransport write:
DILUPBiCGStab:  Solving for C, Initial residual = 3.66047e-06, Final residual = 9.03851e-07, No Iterations 4

mixingQuality = 0.662916
Time = 1.38s

ExecutionTime = 99.6832 s  ClockTime = 102 s

scalarTransport write:
DILUPBiCGStab:  Solving for C, Initial residual = 3.37687e-06, Final residual = 8.40706e-07, No Iterations 4

mixingQuality = 0.662917
Time = 1.39s

ExecutionTime = 99.7807 s  ClockTime = 102 s

scalarTransport write:
DILUPBiCGStab:  Solving for C, Initial residual = 2.94442e-06, Final residual = 8.25163e-07, No Iterations 4

mixingQuality = 0.662918
Time = 1.4s

ExecutionTime = 99.8715 s  ClockTime = 102 s

scalarTransport write:
DILUPBiCGStab:  Solving for C, Initial residual = 2.58623e-06, Final residual = 8.15301e-07, No Iterations 4

mixingQuality = 0.662919
Time = 1.41s

ExecutionTime = 99.9692 s  ClockTime = 103 s

scalarTransport write:
DILUPBiCGStab:  Solving for C, Initial residual = 2.2947e-06, Final residual = 8.67223e-07, No Iterations 4

mixingQuality = 0.662919
Time = 1.42s

ExecutionTime = 100.061 s  ClockTime = 103 s

scalarTransport write:
DILUPBiCGStab:  Solving for C, Initial residual = 2.09649e-06, Final residual = 8.55315e-07, No Iterations 4

mixingQuality = 0.66292
Time = 1.43s

ExecutionTime = 100.159 s  ClockTime = 103 s

scalarTransport write:
DILUPBiCGStab:  Solving for C, Initial residual = 1.84747e-06, Final residual = 9.23465e-07, No Iterations 4

mixingQuality = 0.662921
Time = 1.44s

ExecutionTime = 100.256 s  ClockTime = 103 s

scalarTransport write:
DILUPBiCGStab:  Solving for C, Initial residual = 1.66296e-06, Final residual = 8.42176e-07, No Iterations 4

mixingQuality = 0.662921
Time = 1.45s

ExecutionTime = 100.354 s  ClockTime = 103 s

scalarTransport write:
DILUPBiCGStab:  Solving for C, Initial residual = 1.45281e-06, Final residual = 9.66704e-07, No Iterations 3

mixingQuality = 0.662921
Time = 1.46s

ExecutionTime = 100.438 s  ClockTime = 103 s

scalarTransport write:
DILUPBiCGStab:  Solving for C, Initial residual = 1.29651e-06, Final residual = 8.38738e-07, No Iterations 4

mixingQuality = 0.662921
Time = 1.47s

ExecutionTime = 100.529 s  ClockTime = 103 s

scalarTransport write:
DILUPBiCGStab:  Solving for C, Initial residual = 1.30188e-06, Final residual = 8.85873e-07, No Iterations 3

mixingQuality = 0.662922
Time = 1.48s

ExecutionTime = 100.613 s  ClockTime = 103 s

scalarTransport write:
DILUPBiCGStab:  Solving for C, Initial residual = 1.28395e-06, Final residual = 9.53238e-07, No Iterations 3

mixingQuality = 0.662922
Time = 1.49s

ExecutionTime = 100.69 s  ClockTime = 103 s

scalarTransport write:
DILUPBiCGStab:  Solving for C, Initial residual = 1.17069e-06, Final residual = 8.753e-07, No Iterations 3

mixingQuality = 0.662922
Time = 1.5s

ExecutionTime = 100.769 s  ClockTime = 103 s

scalarTransport write:
DILUPBiCGStab:  Solving for C, Initial residual = 1.07926e-06, Final residual = 9.70691e-07, No Iterations 2

mixingQuality = 0.662922
Time = 1.51s

ExecutionTime = 100.833 s  ClockTime = 103 s

scalarTransport write:
DILUPBiCGStab:  Solving for C, Initial residual = 1.14382e-06, Final residual = 7.61537e-07, No Iterations 3

mixingQuality = 0.662922
Time = 1.52s

ExecutionTime = 100.911 s  ClockTime = 103 s

scalarTransport write:
DILUPBiCGStab:  Solving for C, Initial residual = 9.27528e-07, Final residual = 9.27528e-07, No Iterations 0

mixingQuality = 0.662922
Time = 1.53s

ExecutionTime = 100.952 s  ClockTime = 104 s

scalarTransport write:
DILUPBiCGStab:  Solving for C, Initial residual = 9.27528e-07, Final residual = 9.27528e-07, No Iterations 0

mixingQuality = 0.662922
Time = 1.54s

ExecutionTime = 100.993 s  ClockTime = 104 s

scalarTransport write:
DILUPBiCGStab:  Solving for C, Initial residual = 9.27528e-07, Final residual = 9.27528e-07, No Iterations 0

mixingQuality = 0.662922
Time = 1.55s

ExecutionTime = 101.034 s  ClockTime = 104 s

scalarTransport write:
DILUPBiCGStab:  Solving for C, Initial residual = 9.27528e-07, Final residual = 9.27528e-07, No Iterations 0

mixingQuality = 0.662922
Time = 1.56s

ExecutionTime = 101.074 s  ClockTime = 104 s

scalarTransport write:
DILUPBiCGStab:  Solving for C, Initial residual = 9.27528e-07, Final residual = 9.27528e-07, No Iterations 0

mixingQuality = 0.662922
Time = 1.57s

ExecutionTime = 101.115 s  ClockTime = 104 s

scalarTransport write:
DILUPBiCGStab:  Solving for C, Initial residual = 9.27528e-07, Final residual = 9.27528e-07, No Iterations 0

mixingQuality = 0.662922
Time = 1.58s

ExecutionTime = 101.155 s  ClockTime = 104 s

scalarTransport write:
DILUPBiCGStab:  Solving for C, Initial residual = 9.27528e-07, Final residual = 9.27528e-07, No Iterations 0

mixingQuality = 0.662922
Time = 1.59s

ExecutionTime = 101.196 s  ClockTime = 104 s

scalarTransport write:
DILUPBiCGStab:  Solving for C, Initial residual = 9.27528e-07, Final residual = 9.27528e-07, No Iterations 0

mixingQuality = 0.662922
Time = 1.6s

ExecutionTime = 101.236 s  ClockTime = 104 s

scalarTransport write:
DILUPBiCGStab:  Solving for C, Initial residual = 9.27528e-07, Final residual = 9.27528e-07, No Iterations 0

mixingQuality = 0.662922
Time = 1.61s

ExecutionTime = 101.277 s  ClockTime = 104 s

scalarTransport write:
DILUPBiCGStab:  Solving for C, Initial residual = 9.27528e-07, Final residual = 9.27528e-07, No Iterations 0

mixingQuality = 0.662922
Time = 1.62s

ExecutionTime = 101.318 s  ClockTime = 104 s

scalarTransport write:
DILUPBiCGStab:  Solving for C, Initial residual = 9.27528e-07, Final residual = 9.27528e-07, No Iterations 0

mixingQuality = 0.662922
Time = 1.63s

ExecutionTime = 101.359 s  ClockTime = 104 s

scalarTransport write:
DILUPBiCGStab:  Solving for C, Initial residual = 9.27528e-07, Final residual = 9.27528e-07, No Iterations 0

mixingQuality = 0.662922
Time = 1.64s

ExecutionTime = 101.399 s  ClockTime = 104 s

scalarTransport write:
DILUPBiCGStab:  Solving for C, Initial residual = 9.27528e-07, Final residual = 9.27528e-07, No Iterations 0

mixingQuality = 0.662922
Time = 1.65s

ExecutionTime = 101.44 s  ClockTime = 104 s

scalarTransport write:
DILUPBiCGStab:  Solving for C, Initial residual = 9.27528e-07, Final residual = 9.27528e-07, No Iterations 0

mixingQuality = 0.662922
Time = 1.66s

ExecutionTime = 101.481 s  ClockTime = 104 s

scalarTransport write:
DILUPBiCGStab:  Solving for C, Initial residual = 9.27528e-07, Final residual = 9.27528e-07, No Iterations 0

mixingQuality = 0.662922
Time = 1.67s

ExecutionTime = 101.522 s  ClockTime = 104 s

scalarTransport write:
DILUPBiCGStab:  Solving for C, Initial residual = 9.27528e-07, Final residual = 9.27528e-07, No Iterations 0

mixingQuality = 0.662922
Time = 1.68s

ExecutionTime = 101.564 s  ClockTime = 104 s

scalarTransport write:
DILUPBiCGStab:  Solving for C, Initial residual = 9.27528e-07, Final residual = 9.27528e-07, No Iterations 0

mixingQuality = 0.662922
Time = 1.69s

ExecutionTime = 101.605 s  ClockTime = 104 s

scalarTransport write:
DILUPBiCGStab:  Solving for C, Initial residual = 9.27528e-07, Final residual = 9.27528e-07, No Iterations 0

mixingQuality = 0.662922
Time = 1.7s

ExecutionTime = 101.646 s  ClockTime = 104 s

scalarTransport write:
DILUPBiCGStab:  Solving for C, Initial residual = 9.27528e-07, Final residual = 9.27528e-07, No Iterations 0

mixingQuality = 0.662922
Time = 1.71s

ExecutionTime = 101.687 s  ClockTime = 104 s

scalarTransport write:
DILUPBiCGStab:  Solving for C, Initial residual = 9.27528e-07, Final residual = 9.27528e-07, No Iterations 0

mixingQuality = 0.662922
Time = 1.72s

ExecutionTime = 101.727 s  ClockTime = 104 s

scalarTransport write:
DILUPBiCGStab:  Solving for C, Initial residual = 9.27528e-07, Final residual = 9.27528e-07, No Iterations 0

mixingQuality = 0.662922
Time = 1.73s

ExecutionTime = 101.768 s  ClockTime = 104 s

scalarTransport write:
DILUPBiCGStab:  Solving for C, Initial residual = 9.27528e-07, Final residual = 9.27528e-07, No Iterations 0

mixingQuality = 0.662922
Time = 1.74s

ExecutionTime = 101.808 s  ClockTime = 104 s

scalarTransport write:
DILUPBiCGStab:  Solving for C, Initial residual = 9.27528e-07, Final residual = 9.27528e-07, No Iterations 0

mixingQuality = 0.662922
Time = 1.75s

ExecutionTime = 101.849 s  ClockTime = 104 s

scalarTransport write:
DILUPBiCGStab:  Solving for C, Initial residual = 9.27528e-07, Final residual = 9.27528e-07, No Iterations 0

mixingQuality = 0.662922
Time = 1.76s

ExecutionTime = 101.889 s  ClockTime = 104 s

scalarTransport write:
DILUPBiCGStab:  Solving for C, Initial residual = 9.27528e-07, Final residual = 9.27528e-07, No Iterations 0

mixingQuality = 0.662922
Time = 1.77s

ExecutionTime = 101.93 s  ClockTime = 105 s

scalarTransport write:
DILUPBiCGStab:  Solving for C, Initial residual = 9.27528e-07, Final residual = 9.27528e-07, No Iterations 0

mixingQuality = 0.662922
Time = 1.78s

ExecutionTime = 101.971 s  ClockTime = 105 s

scalarTransport write:
DILUPBiCGStab:  Solving for C, Initial residual = 9.27528e-07, Final residual = 9.27528e-07, No Iterations 0

mixingQuality = 0.662922
Time = 1.79s

ExecutionTime = 102.011 s  ClockTime = 105 s

scalarTransport write:
DILUPBiCGStab:  Solving for C, Initial residual = 9.27528e-07, Final residual = 9.27528e-07, No Iterations 0

mixingQuality = 0.662922
Time = 1.8s

ExecutionTime = 102.051 s  ClockTime = 105 s

scalarTransport write:
DILUPBiCGStab:  Solving for C, Initial residual = 9.27528e-07, Final residual = 9.27528e-07, No Iterations 0

mixingQuality = 0.662922
Time = 1.81s

ExecutionTime = 102.092 s  ClockTime = 105 s

scalarTransport write:
DILUPBiCGStab:  Solving for C, Initial residual = 9.27528e-07, Final residual = 9.27528e-07, No Iterations 0

mixingQuality = 0.662922
Time = 1.82s

ExecutionTime = 102.132 s  ClockTime = 105 s

scalarTransport write:
DILUPBiCGStab:  Solving for C, Initial residual = 9.27528e-07, Final residual = 9.27528e-07, No Iterations 0

mixingQuality = 0.662922
Time = 1.83s

ExecutionTime = 102.173 s  ClockTime = 105 s

scalarTransport write:
DILUPBiCGStab:  Solving for C, Initial residual = 9.27528e-07, Final residual = 9.27528e-07, No Iterations 0

mixingQuality = 0.662922
Time = 1.84s

ExecutionTime = 102.214 s  ClockTime = 105 s

scalarTransport write:
DILUPBiCGStab:  Solving for C, Initial residual = 9.27528e-07, Final residual = 9.27528e-07, No Iterations 0

mixingQuality = 0.662922
Time = 1.85s

ExecutionTime = 102.254 s  ClockTime = 105 s

scalarTransport write:
DILUPBiCGStab:  Solving for C, Initial residual = 9.27528e-07, Final residual = 9.27528e-07, No Iterations 0

mixingQuality = 0.662922
Time = 1.86s

ExecutionTime = 102.295 s  ClockTime = 105 s

scalarTransport write:
DILUPBiCGStab:  Solving for C, Initial residual = 9.27528e-07, Final residual = 9.27528e-07, No Iterations 0

mixingQuality = 0.662922
Time = 1.87s

ExecutionTime = 102.335 s  ClockTime = 105 s

scalarTransport write:
DILUPBiCGStab:  Solving for C, Initial residual = 9.27528e-07, Final residual = 9.27528e-07, No Iterations 0

mixingQuality = 0.662922
Time = 1.88s

ExecutionTime = 102.377 s  ClockTime = 105 s

scalarTransport write:
DILUPBiCGStab:  Solving for C, Initial residual = 9.27528e-07, Final residual = 9.27528e-07, No Iterations 0

mixingQuality = 0.662922
Time = 1.89s

ExecutionTime = 102.419 s  ClockTime = 105 s

scalarTransport write:
DILUPBiCGStab:  Solving for C, Initial residual = 9.27528e-07, Final residual = 9.27528e-07, No Iterations 0

mixingQuality = 0.662922
Time = 1.9s

ExecutionTime = 102.459 s  ClockTime = 105 s

scalarTransport write:
DILUPBiCGStab:  Solving for C, Initial residual = 9.27528e-07, Final residual = 9.27528e-07, No Iterations 0

mixingQuality = 0.662922
Time = 1.91s

ExecutionTime = 102.5 s  ClockTime = 105 s

scalarTransport write:
DILUPBiCGStab:  Solving for C, Initial residual = 9.27528e-07, Final residual = 9.27528e-07, No Iterations 0

mixingQuality = 0.662922
Time = 1.92s

ExecutionTime = 102.54 s  ClockTime = 105 s

scalarTransport write:
DILUPBiCGStab:  Solving for C, Initial residual = 9.27528e-07, Final residual = 9.27528e-07, No Iterations 0

mixingQuality = 0.662922
Time = 1.93s

ExecutionTime = 102.581 s  ClockTime = 105 s

scalarTransport write:
DILUPBiCGStab:  Solving for C, Initial residual = 9.27528e-07, Final residual = 9.27528e-07, No Iterations 0

mixingQuality = 0.662922
Time = 1.94s

ExecutionTime = 102.621 s  ClockTime = 105 s

scalarTransport write:
DILUPBiCGStab:  Solving for C, Initial residual = 9.27528e-07, Final residual = 9.27528e-07, No Iterations 0

mixingQuality = 0.662922
Time = 1.95s

ExecutionTime = 102.662 s  ClockTime = 105 s

scalarTransport write:
DILUPBiCGStab:  Solving for C, Initial residual = 9.27528e-07, Final residual = 9.27528e-07, No Iterations 0

mixingQuality = 0.662922
Time = 1.96s

ExecutionTime = 102.702 s  ClockTime = 105 s

scalarTransport write:
DILUPBiCGStab:  Solving for C, Initial residual = 9.27528e-07, Final residual = 9.27528e-07, No Iterations 0

mixingQuality = 0.662922
Time = 1.97s

ExecutionTime = 102.743 s  ClockTime = 105 s

scalarTransport write:
DILUPBiCGStab:  Solving for C, Initial residual = 9.27528e-07, Final residual = 9.27528e-07, No Iterations 0

mixingQuality = 0.662922
Time = 1.98s

ExecutionTime = 102.784 s  ClockTime = 105 s

scalarTransport write:
DILUPBiCGStab:  Solving for C, Initial residual = 9.27528e-07, Final residual = 9.27528e-07, No Iterations 0

mixingQuality = 0.662922
Time = 1.99s

ExecutionTime = 102.825 s  ClockTime = 105 s

scalarTransport write:
DILUPBiCGStab:  Solving for C, Initial residual = 9.27528e-07, Final residual = 9.27528e-07, No Iterations 0

mixingQuality = 0.662922
Time = 2s

ExecutionTime = 102.865 s  ClockTime = 105 s

scalarTransport write:
DILUPBiCGStab:  Solving for C, Initial residual = 9.27528e-07, Final residual = 9.27528e-07, No Iterations 0

mixingQuality = 0.662922
Time = 2.01s

ExecutionTime = 102.905 s  ClockTime = 105 s

scalarTransport write:
DILUPBiCGStab:  Solving for C, Initial residual = 9.27528e-07, Final residual = 9.27528e-07, No Iterations 0

mixingQuality = 0.662922
Time = 2.02s

ExecutionTime = 102.946 s  ClockTime = 106 s

scalarTransport write:
DILUPBiCGStab:  Solving for C, Initial residual = 9.27528e-07, Final residual = 9.27528e-07, No Iterations 0

mixingQuality = 0.662922
Time = 2.03s

ExecutionTime = 102.987 s  ClockTime = 106 s

scalarTransport write:
DILUPBiCGStab:  Solving for C, Initial residual = 9.27528e-07, Final residual = 9.27528e-07, No Iterations 0

mixingQuality = 0.662922
Time = 2.04s

ExecutionTime = 103.027 s  ClockTime = 106 s

scalarTransport write:
DILUPBiCGStab:  Solving for C, Initial residual = 9.27528e-07, Final residual = 9.27528e-07, No Iterations 0

mixingQuality = 0.662922
Time = 2.05s

ExecutionTime = 103.068 s  ClockTime = 106 s

scalarTransport write:
DILUPBiCGStab:  Solving for C, Initial residual = 9.27528e-07, Final residual = 9.27528e-07, No Iterations 0

mixingQuality = 0.662922
Time = 2.06s

ExecutionTime = 103.109 s  ClockTime = 106 s

scalarTransport write:
DILUPBiCGStab:  Solving for C, Initial residual = 9.27528e-07, Final residual = 9.27528e-07, No Iterations 0

mixingQuality = 0.662922
Time = 2.07s

ExecutionTime = 103.152 s  ClockTime = 106 s

scalarTransport write:
DILUPBiCGStab:  Solving for C, Initial residual = 9.27528e-07, Final residual = 9.27528e-07, No Iterations 0

mixingQuality = 0.662922
Time = 2.08s

ExecutionTime = 103.192 s  ClockTime = 106 s

scalarTransport write:
DILUPBiCGStab:  Solving for C, Initial residual = 9.27528e-07, Final residual = 9.27528e-07, No Iterations 0

mixingQuality = 0.662922
Time = 2.09s

ExecutionTime = 103.233 s  ClockTime = 106 s

scalarTransport write:
DILUPBiCGStab:  Solving for C, Initial residual = 9.27528e-07, Final residual = 9.27528e-07, No Iterations 0

mixingQuality = 0.662922
Time = 2.1s

ExecutionTime = 103.273 s  ClockTime = 106 s

scalarTransport write:
DILUPBiCGStab:  Solving for C, Initial residual = 9.27528e-07, Final residual = 9.27528e-07, No Iterations 0

mixingQuality = 0.662922
Time = 2.11s

ExecutionTime = 103.314 s  ClockTime = 106 s

scalarTransport write:
DILUPBiCGStab:  Solving for C, Initial residual = 9.27528e-07, Final residual = 9.27528e-07, No Iterations 0

mixingQuality = 0.662922
Time = 2.12s

ExecutionTime = 103.355 s  ClockTime = 106 s

scalarTransport write:
DILUPBiCGStab:  Solving for C, Initial residual = 9.27528e-07, Final residual = 9.27528e-07, No Iterations 0

mixingQuality = 0.662922
Time = 2.13s

ExecutionTime = 103.395 s  ClockTime = 106 s

scalarTransport write:
DILUPBiCGStab:  Solving for C, Initial residual = 9.27528e-07, Final residual = 9.27528e-07, No Iterations 0

mixingQuality = 0.662922
Time = 2.14s

ExecutionTime = 103.436 s  ClockTime = 106 s

scalarTransport write:
DILUPBiCGStab:  Solving for C, Initial residual = 9.27528e-07, Final residual = 9.27528e-07, No Iterations 0

mixingQuality = 0.662922
Time = 2.15s

ExecutionTime = 103.476 s  ClockTime = 106 s

scalarTransport write:
DILUPBiCGStab:  Solving for C, Initial residual = 9.27528e-07, Final residual = 9.27528e-07, No Iterations 0

mixingQuality = 0.662922
Time = 2.16s

ExecutionTime = 103.517 s  ClockTime = 106 s

scalarTransport write:
DILUPBiCGStab:  Solving for C, Initial residual = 9.27528e-07, Final residual = 9.27528e-07, No Iterations 0

mixingQuality = 0.662922
Time = 2.17s

ExecutionTime = 103.557 s  ClockTime = 106 s

scalarTransport write:
DILUPBiCGStab:  Solving for C, Initial residual = 9.27528e-07, Final residual = 9.27528e-07, No Iterations 0

mixingQuality = 0.662922
Time = 2.18s

ExecutionTime = 103.598 s  ClockTime = 106 s

scalarTransport write:
DILUPBiCGStab:  Solving for C, Initial residual = 9.27528e-07, Final residual = 9.27528e-07, No Iterations 0

mixingQuality = 0.662922
Time = 2.19s

ExecutionTime = 103.639 s  ClockTime = 106 s

scalarTransport write:
DILUPBiCGStab:  Solving for C, Initial residual = 9.27528e-07, Final residual = 9.27528e-07, No Iterations 0

mixingQuality = 0.662922
Time = 2.2s

ExecutionTime = 103.679 s  ClockTime = 106 s

scalarTransport write:
DILUPBiCGStab:  Solving for C, Initial residual = 9.27528e-07, Final residual = 9.27528e-07, No Iterations 0

mixingQuality = 0.662922
Time = 2.21s

ExecutionTime = 103.72 s  ClockTime = 106 s

scalarTransport write:
DILUPBiCGStab:  Solving for C, Initial residual = 9.27528e-07, Final residual = 9.27528e-07, No Iterations 0

mixingQuality = 0.662922
Time = 2.22s

ExecutionTime = 103.76 s  ClockTime = 106 s

scalarTransport write:
DILUPBiCGStab:  Solving for C, Initial residual = 9.27528e-07, Final residual = 9.27528e-07, No Iterations 0

mixingQuality = 0.662922
Time = 2.23s

ExecutionTime = 103.801 s  ClockTime = 106 s

scalarTransport write:
DILUPBiCGStab:  Solving for C, Initial residual = 9.27528e-07, Final residual = 9.27528e-07, No Iterations 0

mixingQuality = 0.662922
Time = 2.24s

ExecutionTime = 103.843 s  ClockTime = 106 s

scalarTransport write:
DILUPBiCGStab:  Solving for C, Initial residual = 9.27528e-07, Final residual = 9.27528e-07, No Iterations 0

mixingQuality = 0.662922
Time = 2.25s

ExecutionTime = 103.884 s  ClockTime = 106 s

scalarTransport write:
DILUPBiCGStab:  Solving for C, Initial residual = 9.27528e-07, Final residual = 9.27528e-07, No Iterations 0

mixingQuality = 0.662922
Time = 2.26s

ExecutionTime = 103.924 s  ClockTime = 106 s

scalarTransport write:
DILUPBiCGStab:  Solving for C, Initial residual = 9.27528e-07, Final residual = 9.27528e-07, No Iterations 0

mixingQuality = 0.662922
Time = 2.27s

ExecutionTime = 103.965 s  ClockTime = 107 s

scalarTransport write:
DILUPBiCGStab:  Solving for C, Initial residual = 9.27528e-07, Final residual = 9.27528e-07, No Iterations 0

mixingQuality = 0.662922
Time = 2.28s

ExecutionTime = 104.006 s  ClockTime = 107 s

scalarTransport write:
DILUPBiCGStab:  Solving for C, Initial residual = 9.27528e-07, Final residual = 9.27528e-07, No Iterations 0

mixingQuality = 0.662922
Time = 2.29s

ExecutionTime = 104.046 s  ClockTime = 107 s

scalarTransport write:
DILUPBiCGStab:  Solving for C, Initial residual = 9.27528e-07, Final residual = 9.27528e-07, No Iterations 0

mixingQuality = 0.662922
Time = 2.3s

ExecutionTime = 104.087 s  ClockTime = 107 s

scalarTransport write:
DILUPBiCGStab:  Solving for C, Initial residual = 9.27528e-07, Final residual = 9.27528e-07, No Iterations 0

mixingQuality = 0.662922
Time = 2.31s

ExecutionTime = 104.127 s  ClockTime = 107 s

scalarTransport write:
DILUPBiCGStab:  Solving for C, Initial residual = 9.27528e-07, Final residual = 9.27528e-07, No Iterations 0

mixingQuality = 0.662922
Time = 2.32s

ExecutionTime = 104.168 s  ClockTime = 107 s

scalarTransport write:
DILUPBiCGStab:  Solving for C, Initial residual = 9.27528e-07, Final residual = 9.27528e-07, No Iterations 0

mixingQuality = 0.662922
Time = 2.33s

ExecutionTime = 104.208 s  ClockTime = 107 s

scalarTransport write:
DILUPBiCGStab:  Solving for C, Initial residual = 9.27528e-07, Final residual = 9.27528e-07, No Iterations 0

mixingQuality = 0.662922
Time = 2.34s

ExecutionTime = 104.249 s  ClockTime = 107 s

scalarTransport write:
DILUPBiCGStab:  Solving for C, Initial residual = 9.27528e-07, Final residual = 9.27528e-07, No Iterations 0

mixingQuality = 0.662922
Time = 2.35s

ExecutionTime = 104.289 s  ClockTime = 107 s

scalarTransport write:
DILUPBiCGStab:  Solving for C, Initial residual = 9.27528e-07, Final residual = 9.27528e-07, No Iterations 0

mixingQuality = 0.662922
Time = 2.36s

ExecutionTime = 104.33 s  ClockTime = 107 s

scalarTransport write:
DILUPBiCGStab:  Solving for C, Initial residual = 9.27528e-07, Final residual = 9.27528e-07, No Iterations 0

mixingQuality = 0.662922
Time = 2.37s

ExecutionTime = 104.371 s  ClockTime = 107 s

scalarTransport write:
DILUPBiCGStab:  Solving for C, Initial residual = 9.27528e-07, Final residual = 9.27528e-07, No Iterations 0

mixingQuality = 0.662922
Time = 2.38s

ExecutionTime = 104.411 s  ClockTime = 107 s

scalarTransport write:
DILUPBiCGStab:  Solving for C, Initial residual = 9.27528e-07, Final residual = 9.27528e-07, No Iterations 0

mixingQuality = 0.662922
Time = 2.39s

ExecutionTime = 104.452 s  ClockTime = 107 s

scalarTransport write:
DILUPBiCGStab:  Solving for C, Initial residual = 9.27528e-07, Final residual = 9.27528e-07, No Iterations 0

mixingQuality = 0.662922
Time = 2.4s

ExecutionTime = 104.492 s  ClockTime = 107 s

scalarTransport write:
DILUPBiCGStab:  Solving for C, Initial residual = 9.27528e-07, Final residual = 9.27528e-07, No Iterations 0

mixingQuality = 0.662922
Time = 2.41s

ExecutionTime = 104.533 s  ClockTime = 107 s

scalarTransport write:
DILUPBiCGStab:  Solving for C, Initial residual = 9.27528e-07, Final residual = 9.27528e-07, No Iterations 0

mixingQuality = 0.662922
Time = 2.42s

ExecutionTime = 104.576 s  ClockTime = 107 s

scalarTransport write:
DILUPBiCGStab:  Solving for C, Initial residual = 9.27528e-07, Final residual = 9.27528e-07, No Iterations 0

mixingQuality = 0.662922
Time = 2.43s

ExecutionTime = 104.616 s  ClockTime = 107 s

scalarTransport write:
DILUPBiCGStab:  Solving for C, Initial residual = 9.27528e-07, Final residual = 9.27528e-07, No Iterations 0

mixingQuality = 0.662922
Time = 2.44s

ExecutionTime = 104.657 s  ClockTime = 107 s

scalarTransport write:
DILUPBiCGStab:  Solving for C, Initial residual = 9.27528e-07, Final residual = 9.27528e-07, No Iterations 0

mixingQuality = 0.662922
Time = 2.45s

ExecutionTime = 104.697 s  ClockTime = 107 s

scalarTransport write:
DILUPBiCGStab:  Solving for C, Initial residual = 9.27528e-07, Final residual = 9.27528e-07, No Iterations 0

mixingQuality = 0.662922
Time = 2.46s

ExecutionTime = 104.737 s  ClockTime = 107 s

scalarTransport write:
DILUPBiCGStab:  Solving for C, Initial residual = 9.27528e-07, Final residual = 9.27528e-07, No Iterations 0

mixingQuality = 0.662922
Time = 2.47s

ExecutionTime = 104.778 s  ClockTime = 107 s

scalarTransport write:
DILUPBiCGStab:  Solving for C, Initial residual = 9.27528e-07, Final residual = 9.27528e-07, No Iterations 0

mixingQuality = 0.662922
Time = 2.48s

ExecutionTime = 104.818 s  ClockTime = 107 s

scalarTransport write:
DILUPBiCGStab:  Solving for C, Initial residual = 9.27528e-07, Final residual = 9.27528e-07, No Iterations 0

mixingQuality = 0.662922
Time = 2.49s

ExecutionTime = 104.859 s  ClockTime = 107 s

scalarTransport write:
DILUPBiCGStab:  Solving for C, Initial residual = 9.27528e-07, Final residual = 9.27528e-07, No Iterations 0

mixingQuality = 0.662922
Time = 2.5s

ExecutionTime = 104.9 s  ClockTime = 107 s

scalarTransport write:
DILUPBiCGStab:  Solving for C, Initial residual = 9.27528e-07, Final residual = 9.27528e-07, No Iterations 0

mixingQuality = 0.662922
Time = 2.51s

ExecutionTime = 104.94 s  ClockTime = 108 s

scalarTransport write:
DILUPBiCGStab:  Solving for C, Initial residual = 9.27528e-07, Final residual = 9.27528e-07, No Iterations 0

mixingQuality = 0.662922
Time = 2.52s

ExecutionTime = 104.981 s  ClockTime = 108 s

scalarTransport write:
DILUPBiCGStab:  Solving for C, Initial residual = 9.27528e-07, Final residual = 9.27528e-07, No Iterations 0

mixingQuality = 0.662922
Time = 2.53s

ExecutionTime = 105.022 s  ClockTime = 108 s

scalarTransport write:
DILUPBiCGStab:  Solving for C, Initial residual = 9.27528e-07, Final residual = 9.27528e-07, No Iterations 0

mixingQuality = 0.662922
Time = 2.54s

ExecutionTime = 105.063 s  ClockTime = 108 s

scalarTransport write:
DILUPBiCGStab:  Solving for C, Initial residual = 9.27528e-07, Final residual = 9.27528e-07, No Iterations 0

mixingQuality = 0.662922
Time = 2.55s

ExecutionTime = 105.103 s  ClockTime = 108 s

scalarTransport write:
DILUPBiCGStab:  Solving for C, Initial residual = 9.27528e-07, Final residual = 9.27528e-07, No Iterations 0

mixingQuality = 0.662922
Time = 2.56s

ExecutionTime = 105.144 s  ClockTime = 108 s

scalarTransport write:
DILUPBiCGStab:  Solving for C, Initial residual = 9.27528e-07, Final residual = 9.27528e-07, No Iterations 0

mixingQuality = 0.662922
Time = 2.57s

ExecutionTime = 105.184 s  ClockTime = 108 s

scalarTransport write:
DILUPBiCGStab:  Solving for C, Initial residual = 9.27528e-07, Final residual = 9.27528e-07, No Iterations 0

mixingQuality = 0.662922
Time = 2.58s

ExecutionTime = 105.225 s  ClockTime = 108 s

scalarTransport write:
DILUPBiCGStab:  Solving for C, Initial residual = 9.27528e-07, Final residual = 9.27528e-07, No Iterations 0

mixingQuality = 0.662922
Time = 2.59s

ExecutionTime = 105.265 s  ClockTime = 108 s

scalarTransport write:
DILUPBiCGStab:  Solving for C, Initial residual = 9.27528e-07, Final residual = 9.27528e-07, No Iterations 0

mixingQuality = 0.662922
Time = 2.6s

ExecutionTime = 105.306 s  ClockTime = 108 s

scalarTransport write:
DILUPBiCGStab:  Solving for C, Initial residual = 9.27528e-07, Final residual = 9.27528e-07, No Iterations 0

mixingQuality = 0.662922
Time = 2.61s

ExecutionTime = 105.346 s  ClockTime = 108 s

scalarTransport write:
DILUPBiCGStab:  Solving for C, Initial residual = 9.27528e-07, Final residual = 9.27528e-07, No Iterations 0

mixingQuality = 0.662922
Time = 2.62s

ExecutionTime = 105.389 s  ClockTime = 108 s

scalarTransport write:
DILUPBiCGStab:  Solving for C, Initial residual = 9.27528e-07, Final residual = 9.27528e-07, No Iterations 0

mixingQuality = 0.662922
Time = 2.63s

ExecutionTime = 105.43 s  ClockTime = 108 s

scalarTransport write:
DILUPBiCGStab:  Solving for C, Initial residual = 9.27528e-07, Final residual = 9.27528e-07, No Iterations 0

mixingQuality = 0.662922
Time = 2.64s

ExecutionTime = 105.47 s  ClockTime = 108 s

scalarTransport write:
DILUPBiCGStab:  Solving for C, Initial residual = 9.27528e-07, Final residual = 9.27528e-07, No Iterations 0

mixingQuality = 0.662922
Time = 2.65s

ExecutionTime = 105.511 s  ClockTime = 108 s

scalarTransport write:
DILUPBiCGStab:  Solving for C, Initial residual = 9.27528e-07, Final residual = 9.27528e-07, No Iterations 0

mixingQuality = 0.662922
Time = 2.66s

ExecutionTime = 105.552 s  ClockTime = 108 s

scalarTransport write:
DILUPBiCGStab:  Solving for C, Initial residual = 9.27528e-07, Final residual = 9.27528e-07, No Iterations 0

mixingQuality = 0.662922
Time = 2.67s

ExecutionTime = 105.592 s  ClockTime = 108 s

scalarTransport write:
DILUPBiCGStab:  Solving for C, Initial residual = 9.27528e-07, Final residual = 9.27528e-07, No Iterations 0

mixingQuality = 0.662922
Time = 2.68s

ExecutionTime = 105.633 s  ClockTime = 108 s

scalarTransport write:
DILUPBiCGStab:  Solving for C, Initial residual = 9.27528e-07, Final residual = 9.27528e-07, No Iterations 0

mixingQuality = 0.662922
Time = 2.69s

ExecutionTime = 105.673 s  ClockTime = 108 s

scalarTransport write:
DILUPBiCGStab:  Solving for C, Initial residual = 9.27528e-07, Final residual = 9.27528e-07, No Iterations 0

mixingQuality = 0.662922
Time = 2.7s

ExecutionTime = 105.714 s  ClockTime = 108 s

scalarTransport write:
DILUPBiCGStab:  Solving for C, Initial residual = 9.27528e-07, Final residual = 9.27528e-07, No Iterations 0

mixingQuality = 0.662922
Time = 2.71s

ExecutionTime = 105.755 s  ClockTime = 108 s

scalarTransport write:
DILUPBiCGStab:  Solving for C, Initial residual = 9.27528e-07, Final residual = 9.27528e-07, No Iterations 0

mixingQuality = 0.662922
Time = 2.72s

ExecutionTime = 105.795 s  ClockTime = 108 s

scalarTransport write:
DILUPBiCGStab:  Solving for C, Initial residual = 9.27528e-07, Final residual = 9.27528e-07, No Iterations 0

mixingQuality = 0.662922
Time = 2.73s

ExecutionTime = 105.836 s  ClockTime = 108 s

scalarTransport write:
DILUPBiCGStab:  Solving for C, Initial residual = 9.27528e-07, Final residual = 9.27528e-07, No Iterations 0

mixingQuality = 0.662922
Time = 2.74s

ExecutionTime = 105.876 s  ClockTime = 108 s

scalarTransport write:
DILUPBiCGStab:  Solving for C, Initial residual = 9.27528e-07, Final residual = 9.27528e-07, No Iterations 0

mixingQuality = 0.662922
Time = 2.75s

ExecutionTime = 105.917 s  ClockTime = 108 s

scalarTransport write:
DILUPBiCGStab:  Solving for C, Initial residual = 9.27528e-07, Final residual = 9.27528e-07, No Iterations 0

mixingQuality = 0.662922
Time = 2.76s

ExecutionTime = 105.958 s  ClockTime = 109 s

scalarTransport write:
DILUPBiCGStab:  Solving for C, Initial residual = 9.27528e-07, Final residual = 9.27528e-07, No Iterations 0

mixingQuality = 0.662922
Time = 2.77s

ExecutionTime = 105.998 s  ClockTime = 109 s

scalarTransport write:
DILUPBiCGStab:  Solving for C, Initial residual = 9.27528e-07, Final residual = 9.27528e-07, No Iterations 0

mixingQuality = 0.662922
Time = 2.78s

ExecutionTime = 106.039 s  ClockTime = 109 s

scalarTransport write:
DILUPBiCGStab:  Solving for C, Initial residual = 9.27528e-07, Final residual = 9.27528e-07, No Iterations 0

mixingQuality = 0.662922
Time = 2.79s

ExecutionTime = 106.08 s  ClockTime = 109 s

scalarTransport write:
DILUPBiCGStab:  Solving for C, Initial residual = 9.27528e-07, Final residual = 9.27528e-07, No Iterations 0

mixingQuality = 0.662922
Time = 2.8s

ExecutionTime = 106.12 s  ClockTime = 109 s

scalarTransport write:
DILUPBiCGStab:  Solving for C, Initial residual = 9.27528e-07, Final residual = 9.27528e-07, No Iterations 0

mixingQuality = 0.662922
Time = 2.81s

ExecutionTime = 106.161 s  ClockTime = 109 s

scalarTransport write:
DILUPBiCGStab:  Solving for C, Initial residual = 9.27528e-07, Final residual = 9.27528e-07, No Iterations 0

mixingQuality = 0.662922
Time = 2.82s

ExecutionTime = 106.202 s  ClockTime = 109 s

scalarTransport write:
DILUPBiCGStab:  Solving for C, Initial residual = 9.27528e-07, Final residual = 9.27528e-07, No Iterations 0

mixingQuality = 0.662922
Time = 2.83s

ExecutionTime = 106.244 s  ClockTime = 109 s

scalarTransport write:
DILUPBiCGStab:  Solving for C, Initial residual = 9.27528e-07, Final residual = 9.27528e-07, No Iterations 0

mixingQuality = 0.662922
Time = 2.84s

ExecutionTime = 106.285 s  ClockTime = 109 s

scalarTransport write:
DILUPBiCGStab:  Solving for C, Initial residual = 9.27528e-07, Final residual = 9.27528e-07, No Iterations 0

mixingQuality = 0.662922
Time = 2.85s

ExecutionTime = 106.326 s  ClockTime = 109 s

scalarTransport write:
DILUPBiCGStab:  Solving for C, Initial residual = 9.27528e-07, Final residual = 9.27528e-07, No Iterations 0

mixingQuality = 0.662922
Time = 2.86s

ExecutionTime = 106.366 s  ClockTime = 109 s

scalarTransport write:
DILUPBiCGStab:  Solving for C, Initial residual = 9.27528e-07, Final residual = 9.27528e-07, No Iterations 0

mixingQuality = 0.662922
Time = 2.87s

ExecutionTime = 106.407 s  ClockTime = 109 s

scalarTransport write:
DILUPBiCGStab:  Solving for C, Initial residual = 9.27528e-07, Final residual = 9.27528e-07, No Iterations 0

mixingQuality = 0.662922
Time = 2.88s

ExecutionTime = 106.447 s  ClockTime = 109 s

scalarTransport write:
DILUPBiCGStab:  Solving for C, Initial residual = 9.27528e-07, Final residual = 9.27528e-07, No Iterations 0

mixingQuality = 0.662922
Time = 2.89s

ExecutionTime = 106.488 s  ClockTime = 109 s

scalarTransport write:
DILUPBiCGStab:  Solving for C, Initial residual = 9.27528e-07, Final residual = 9.27528e-07, No Iterations 0

mixingQuality = 0.662922
Time = 2.9s

ExecutionTime = 106.528 s  ClockTime = 109 s

scalarTransport write:
DILUPBiCGStab:  Solving for C, Initial residual = 9.27528e-07, Final residual = 9.27528e-07, No Iterations 0

mixingQuality = 0.662922
Time = 2.91s

ExecutionTime = 106.569 s  ClockTime = 109 s

scalarTransport write:
DILUPBiCGStab:  Solving for C, Initial residual = 9.27528e-07, Final residual = 9.27528e-07, No Iterations 0

mixingQuality = 0.662922
Time = 2.92s

ExecutionTime = 106.609 s  ClockTime = 109 s

scalarTransport write:
DILUPBiCGStab:  Solving for C, Initial residual = 9.27528e-07, Final residual = 9.27528e-07, No Iterations 0

mixingQuality = 0.662922
Time = 2.93s

ExecutionTime = 106.65 s  ClockTime = 109 s

scalarTransport write:
DILUPBiCGStab:  Solving for C, Initial residual = 9.27528e-07, Final residual = 9.27528e-07, No Iterations 0

mixingQuality = 0.662922
Time = 2.94s

ExecutionTime = 106.691 s  ClockTime = 109 s

scalarTransport write:
DILUPBiCGStab:  Solving for C, Initial residual = 9.27528e-07, Final residual = 9.27528e-07, No Iterations 0

mixingQuality = 0.662922
Time = 2.95s

ExecutionTime = 106.731 s  ClockTime = 109 s

scalarTransport write:
DILUPBiCGStab:  Solving for C, Initial residual = 9.27528e-07, Final residual = 9.27528e-07, No Iterations 0

mixingQuality = 0.662922
Time = 2.96s

ExecutionTime = 106.772 s  ClockTime = 109 s

scalarTransport write:
DILUPBiCGStab:  Solving for C, Initial residual = 9.27528e-07, Final residual = 9.27528e-07, No Iterations 0

mixingQuality = 0.662922
Time = 2.97s

ExecutionTime = 106.812 s  ClockTime = 109 s

scalarTransport write:
DILUPBiCGStab:  Solving for C, Initial residual = 9.27528e-07, Final residual = 9.27528e-07, No Iterations 0

mixingQuality = 0.662922
Time = 2.98s

ExecutionTime = 106.853 s  ClockTime = 109 s

scalarTransport write:
DILUPBiCGStab:  Solving for C, Initial residual = 9.27528e-07, Final residual = 9.27528e-07, No Iterations 0

mixingQuality = 0.662922
Time = 2.99s

ExecutionTime = 106.893 s  ClockTime = 109 s

scalarTransport write:
DILUPBiCGStab:  Solving for C, Initial residual = 9.27528e-07, Final residual = 9.27528e-07, No Iterations 0

mixingQuality = 0.662922
Time = 3s

ExecutionTime = 106.934 s  ClockTime = 110 s

scalarTransport write:
DILUPBiCGStab:  Solving for C, Initial residual = 9.27528e-07, Final residual = 9.27528e-07, No Iterations 0

mixingQuality = 0.662922
Time = 3.01s

ExecutionTime = 106.975 s  ClockTime = 110 s

scalarTransport write:
DILUPBiCGStab:  Solving for C, Initial residual = 9.27528e-07, Final residual = 9.27528e-07, No Iterations 0

mixingQuality = 0.662922
Time = 3.02s

ExecutionTime = 107.017 s  ClockTime = 110 s

scalarTransport write:
DILUPBiCGStab:  Solving for C, Initial residual = 9.27528e-07, Final residual = 9.27528e-07, No Iterations 0

mixingQuality = 0.662922
Time = 3.03s

ExecutionTime = 107.059 s  ClockTime = 110 s

scalarTransport write:
DILUPBiCGStab:  Solving for C, Initial residual = 9.27528e-07, Final residual = 9.27528e-07, No Iterations 0

mixingQuality = 0.662922
Time = 3.04s

ExecutionTime = 107.099 s  ClockTime = 110 s

scalarTransport write:
DILUPBiCGStab:  Solving for C, Initial residual = 9.27528e-07, Final residual = 9.27528e-07, No Iterations 0

mixingQuality = 0.662922
Time = 3.05s

ExecutionTime = 107.14 s  ClockTime = 110 s

scalarTransport write:
DILUPBiCGStab:  Solving for C, Initial residual = 9.27528e-07, Final residual = 9.27528e-07, No Iterations 0

mixingQuality = 0.662922
Time = 3.06s

ExecutionTime = 107.18 s  ClockTime = 110 s

scalarTransport write:
DILUPBiCGStab:  Solving for C, Initial residual = 9.27528e-07, Final residual = 9.27528e-07, No Iterations 0

mixingQuality = 0.662922
Time = 3.07s

ExecutionTime = 107.221 s  ClockTime = 110 s

scalarTransport write:
DILUPBiCGStab:  Solving for C, Initial residual = 9.27528e-07, Final residual = 9.27528e-07, No Iterations 0

mixingQuality = 0.662922
Time = 3.08s

ExecutionTime = 107.262 s  ClockTime = 110 s

scalarTransport write:
DILUPBiCGStab:  Solving for C, Initial residual = 9.27528e-07, Final residual = 9.27528e-07, No Iterations 0

mixingQuality = 0.662922
Time = 3.09s

ExecutionTime = 107.302 s  ClockTime = 110 s

scalarTransport write:
DILUPBiCGStab:  Solving for C, Initial residual = 9.27528e-07, Final residual = 9.27528e-07, No Iterations 0

mixingQuality = 0.662922
Time = 3.1s

ExecutionTime = 107.343 s  ClockTime = 110 s

scalarTransport write:
DILUPBiCGStab:  Solving for C, Initial residual = 9.27528e-07, Final residual = 9.27528e-07, No Iterations 0

mixingQuality = 0.662922
Time = 3.11s

ExecutionTime = 107.384 s  ClockTime = 110 s

scalarTransport write:
DILUPBiCGStab:  Solving for C, Initial residual = 9.27528e-07, Final residual = 9.27528e-07, No Iterations 0

mixingQuality = 0.662922
Time = 3.12s

ExecutionTime = 107.424 s  ClockTime = 110 s

scalarTransport write:
DILUPBiCGStab:  Solving for C, Initial residual = 9.27528e-07, Final residual = 9.27528e-07, No Iterations 0

mixingQuality = 0.662922
Time = 3.13s

ExecutionTime = 107.465 s  ClockTime = 110 s

scalarTransport write:
DILUPBiCGStab:  Solving for C, Initial residual = 9.27528e-07, Final residual = 9.27528e-07, No Iterations 0

mixingQuality = 0.662922
Time = 3.14s

ExecutionTime = 107.506 s  ClockTime = 110 s

scalarTransport write:
DILUPBiCGStab:  Solving for C, Initial residual = 9.27528e-07, Final residual = 9.27528e-07, No Iterations 0

mixingQuality = 0.662922
Time = 3.15s

ExecutionTime = 107.546 s  ClockTime = 110 s

scalarTransport write:
DILUPBiCGStab:  Solving for C, Initial residual = 9.27528e-07, Final residual = 9.27528e-07, No Iterations 0

mixingQuality = 0.662922
Time = 3.16s

ExecutionTime = 107.587 s  ClockTime = 110 s

scalarTransport write:
DILUPBiCGStab:  Solving for C, Initial residual = 9.27528e-07, Final residual = 9.27528e-07, No Iterations 0

mixingQuality = 0.662922
Time = 3.17s

ExecutionTime = 107.627 s  ClockTime = 110 s

scalarTransport write:
DILUPBiCGStab:  Solving for C, Initial residual = 9.27528e-07, Final residual = 9.27528e-07, No Iterations 0

mixingQuality = 0.662922
Time = 3.18s

ExecutionTime = 107.668 s  ClockTime = 110 s

scalarTransport write:
DILUPBiCGStab:  Solving for C, Initial residual = 9.27528e-07, Final residual = 9.27528e-07, No Iterations 0

mixingQuality = 0.662922
Time = 3.19s

ExecutionTime = 107.708 s  ClockTime = 110 s

scalarTransport write:
DILUPBiCGStab:  Solving for C, Initial residual = 9.27528e-07, Final residual = 9.27528e-07, No Iterations 0

mixingQuality = 0.662922
Time = 3.2s

ExecutionTime = 107.749 s  ClockTime = 110 s

scalarTransport write:
DILUPBiCGStab:  Solving for C, Initial residual = 9.27528e-07, Final residual = 9.27528e-07, No Iterations 0

mixingQuality = 0.662922
Time = 3.21s

ExecutionTime = 107.789 s  ClockTime = 110 s

scalarTransport write:
DILUPBiCGStab:  Solving for C, Initial residual = 9.27528e-07, Final residual = 9.27528e-07, No Iterations 0

mixingQuality = 0.662922
Time = 3.22s

ExecutionTime = 107.832 s  ClockTime = 110 s

scalarTransport write:
DILUPBiCGStab:  Solving for C, Initial residual = 9.27528e-07, Final residual = 9.27528e-07, No Iterations 0

mixingQuality = 0.662922
Time = 3.23s

ExecutionTime = 107.873 s  ClockTime = 110 s

scalarTransport write:
DILUPBiCGStab:  Solving for C, Initial residual = 9.27528e-07, Final residual = 9.27528e-07, No Iterations 0

mixingQuality = 0.662922
Time = 3.24s

ExecutionTime = 107.913 s  ClockTime = 110 s

scalarTransport write:
DILUPBiCGStab:  Solving for C, Initial residual = 9.27528e-07, Final residual = 9.27528e-07, No Iterations 0

mixingQuality = 0.662922
Time = 3.25s

ExecutionTime = 107.954 s  ClockTime = 111 s

scalarTransport write:
DILUPBiCGStab:  Solving for C, Initial residual = 9.27528e-07, Final residual = 9.27528e-07, No Iterations 0

mixingQuality = 0.662922
Time = 3.26s

ExecutionTime = 107.994 s  ClockTime = 111 s

scalarTransport write:
DILUPBiCGStab:  Solving for C, Initial residual = 9.27528e-07, Final residual = 9.27528e-07, No Iterations 0

mixingQuality = 0.662922
Time = 3.27s

ExecutionTime = 108.035 s  ClockTime = 111 s

scalarTransport write:
DILUPBiCGStab:  Solving for C, Initial residual = 9.27528e-07, Final residual = 9.27528e-07, No Iterations 0

mixingQuality = 0.662922
Time = 3.28s

ExecutionTime = 108.075 s  ClockTime = 111 s

scalarTransport write:
DILUPBiCGStab:  Solving for C, Initial residual = 9.27528e-07, Final residual = 9.27528e-07, No Iterations 0

mixingQuality = 0.662922
Time = 3.29s

ExecutionTime = 108.116 s  ClockTime = 111 s

scalarTransport write:
DILUPBiCGStab:  Solving for C, Initial residual = 9.27528e-07, Final residual = 9.27528e-07, No Iterations 0

mixingQuality = 0.662922
Time = 3.3s

ExecutionTime = 108.157 s  ClockTime = 111 s

scalarTransport write:
DILUPBiCGStab:  Solving for C, Initial residual = 9.27528e-07, Final residual = 9.27528e-07, No Iterations 0

mixingQuality = 0.662922
Time = 3.31s

ExecutionTime = 108.197 s  ClockTime = 111 s

scalarTransport write:
DILUPBiCGStab:  Solving for C, Initial residual = 9.27528e-07, Final residual = 9.27528e-07, No Iterations 0

mixingQuality = 0.662922
Time = 3.32s

ExecutionTime = 108.238 s  ClockTime = 111 s

scalarTransport write:
DILUPBiCGStab:  Solving for C, Initial residual = 9.27528e-07, Final residual = 9.27528e-07, No Iterations 0

mixingQuality = 0.662922
Time = 3.33s

ExecutionTime = 108.278 s  ClockTime = 111 s

scalarTransport write:
DILUPBiCGStab:  Solving for C, Initial residual = 9.27528e-07, Final residual = 9.27528e-07, No Iterations 0

mixingQuality = 0.662922
Time = 3.34s

ExecutionTime = 108.319 s  ClockTime = 111 s

scalarTransport write:
DILUPBiCGStab:  Solving for C, Initial residual = 9.27528e-07, Final residual = 9.27528e-07, No Iterations 0

mixingQuality = 0.662922
Time = 3.35s

ExecutionTime = 108.359 s  ClockTime = 111 s

scalarTransport write:
DILUPBiCGStab:  Solving for C, Initial residual = 9.27528e-07, Final residual = 9.27528e-07, No Iterations 0

mixingQuality = 0.662922
Time = 3.36s

ExecutionTime = 108.4 s  ClockTime = 111 s

scalarTransport write:
DILUPBiCGStab:  Solving for C, Initial residual = 9.27528e-07, Final residual = 9.27528e-07, No Iterations 0

mixingQuality = 0.662922
Time = 3.37s

ExecutionTime = 108.44 s  ClockTime = 111 s

scalarTransport write:
DILUPBiCGStab:  Solving for C, Initial residual = 9.27528e-07, Final residual = 9.27528e-07, No Iterations 0

mixingQuality = 0.662922
Time = 3.38s

ExecutionTime = 108.481 s  ClockTime = 111 s

scalarTransport write:
DILUPBiCGStab:  Solving for C, Initial residual = 9.27528e-07, Final residual = 9.27528e-07, No Iterations 0

mixingQuality = 0.662922
Time = 3.39s

ExecutionTime = 108.521 s  ClockTime = 111 s

scalarTransport write:
DILUPBiCGStab:  Solving for C, Initial residual = 9.27528e-07, Final residual = 9.27528e-07, No Iterations 0

mixingQuality = 0.662922
Time = 3.4s

ExecutionTime = 108.562 s  ClockTime = 111 s

scalarTransport write:
DILUPBiCGStab:  Solving for C, Initial residual = 9.27528e-07, Final residual = 9.27528e-07, No Iterations 0

mixingQuality = 0.662922
Time = 3.41s

ExecutionTime = 108.602 s  ClockTime = 111 s

scalarTransport write:
DILUPBiCGStab:  Solving for C, Initial residual = 9.27528e-07, Final residual = 9.27528e-07, No Iterations 0

mixingQuality = 0.662922
Time = 3.42s

ExecutionTime = 108.643 s  ClockTime = 111 s

scalarTransport write:
DILUPBiCGStab:  Solving for C, Initial residual = 9.27528e-07, Final residual = 9.27528e-07, No Iterations 0

mixingQuality = 0.662922
Time = 3.43s

ExecutionTime = 108.685 s  ClockTime = 111 s

scalarTransport write:
DILUPBiCGStab:  Solving for C, Initial residual = 9.27528e-07, Final residual = 9.27528e-07, No Iterations 0

mixingQuality = 0.662922
Time = 3.44s

ExecutionTime = 108.726 s  ClockTime = 111 s

scalarTransport write:
DILUPBiCGStab:  Solving for C, Initial residual = 9.27528e-07, Final residual = 9.27528e-07, No Iterations 0

mixingQuality = 0.662922
Time = 3.45s

ExecutionTime = 108.766 s  ClockTime = 111 s

scalarTransport write:
DILUPBiCGStab:  Solving for C, Initial residual = 9.27528e-07, Final residual = 9.27528e-07, No Iterations 0

mixingQuality = 0.662922
Time = 3.46s

ExecutionTime = 108.807 s  ClockTime = 111 s

scalarTransport write:
DILUPBiCGStab:  Solving for C, Initial residual = 9.27528e-07, Final residual = 9.27528e-07, No Iterations 0

mixingQuality = 0.662922
Time = 3.47s

ExecutionTime = 108.848 s  ClockTime = 111 s

scalarTransport write:
DILUPBiCGStab:  Solving for C, Initial residual = 9.27528e-07, Final residual = 9.27528e-07, No Iterations 0

mixingQuality = 0.662922
Time = 3.48s

ExecutionTime = 108.888 s  ClockTime = 111 s

scalarTransport write:
DILUPBiCGStab:  Solving for C, Initial residual = 9.27528e-07, Final residual = 9.27528e-07, No Iterations 0

mixingQuality = 0.662922
Time = 3.49s

ExecutionTime = 108.929 s  ClockTime = 112 s

scalarTransport write:
DILUPBiCGStab:  Solving for C, Initial residual = 9.27528e-07, Final residual = 9.27528e-07, No Iterations 0

mixingQuality = 0.662922
Time = 3.5s

ExecutionTime = 108.97 s  ClockTime = 112 s

scalarTransport write:
DILUPBiCGStab:  Solving for C, Initial residual = 9.27528e-07, Final residual = 9.27528e-07, No Iterations 0

mixingQuality = 0.662922
Time = 3.51s

ExecutionTime = 109.01 s  ClockTime = 112 s

scalarTransport write:
DILUPBiCGStab:  Solving for C, Initial residual = 9.27528e-07, Final residual = 9.27528e-07, No Iterations 0

mixingQuality = 0.662922
Time = 3.52s

ExecutionTime = 109.051 s  ClockTime = 112 s

scalarTransport write:
DILUPBiCGStab:  Solving for C, Initial residual = 9.27528e-07, Final residual = 9.27528e-07, No Iterations 0

mixingQuality = 0.662922
Time = 3.53s

ExecutionTime = 109.091 s  ClockTime = 112 s

scalarTransport write:
DILUPBiCGStab:  Solving for C, Initial residual = 9.27528e-07, Final residual = 9.27528e-07, No Iterations 0

mixingQuality = 0.662922
Time = 3.54s

ExecutionTime = 109.132 s  ClockTime = 112 s

scalarTransport write:
DILUPBiCGStab:  Solving for C, Initial residual = 9.27528e-07, Final residual = 9.27528e-07, No Iterations 0

mixingQuality = 0.662922
Time = 3.55s

ExecutionTime = 109.172 s  ClockTime = 112 s

scalarTransport write:
[...]

scalarTransport write:
DILUPBiCGStab:  Solving for C, Initial residual = 9.27528e-07, Final residual = 9.27528e-07, No Iterations 0

mixingQuality = 0.662922
Time = 4.1s

ExecutionTime = 111.414 s  ClockTime = 114 s

scalarTransport write:
DILUPBiCGStab:  Solving for C, Initial residual = 9.27528e-07, Final residual = 9.27528e-07, No Iterations 0

mixingQuality = 0.662922
Time = 4.11s

ExecutionTime = 111.454 s  ClockTime = 114 s

scalarTransport write:
DILUPBiCGStab:  Solving for C, Initial residual = 9.27528e-07, Final residual = 9.27528e-07, No Iterations 0

mixingQuality = 0.662922
Time = 4.12s

ExecutionTime = 111.495 s  ClockTime = 114 s

scalarTransport write:
DILUPBiCGStab:  Solving for C, Initial residual = 9.27528e-07, Final residual = 9.27528e-07, No Iterations 0

mixingQuality = 0.662922
Time = 4.13s

ExecutionTime = 111.536 s  ClockTime = 114 s

scalarTransport write:
DILUPBiCGStab:  Solving for C, Initial residual = 9.27528e-07, Final residual = 9.27528e-07, No Iterations 0

mixingQuality = 0.662922
Time = 4.14s

ExecutionTime = 111.576 s  ClockTime = 114 s

scalarTransport write:
DILUPBiCGStab:  Solving for C, Initial residual = 9.27528e-07, Final residual = 9.27528e-07, No Iterations 0

mixingQuality = 0.662922
Time = 4.15s

ExecutionTime = 111.616 s  ClockTime = 114 s

scalarTransport write:
DILUPBiCGStab:  Solving for C, Initial residual = 9.27528e-07, Final residual = 9.27528e-07, No Iterations 0

mixingQuality = 0.662922
Time = 4.16s

ExecutionTime = 111.657 s  ClockTime = 114 s

scalarTransport write:
DILUPBiCGStab:  Solving for C, Initial residual = 9.27528e-07, Final residual = 9.27528e-07, No Iterations 0

mixingQuality = 0.662922
Time = 4.17s

ExecutionTime = 111.698 s  ClockTime = 114 s

scalarTransport write:
DILUPBiCGStab:  Solving for C, Initial residual = 9.27528e-07, Final residual = 9.27528e-07, No Iterations 0

mixingQuality = 0.662922
Time = 4.18s

ExecutionTime = 111.739 s  ClockTime = 114 s

scalarTransport write:
DILUPBiCGStab:  Solving for C, Initial residual = 9.27528e-07, Final residual = 9.27528e-07, No Iterations 0

mixingQuality = 0.662922
Time = 4.19s

ExecutionTime = 111.779 s  ClockTime = 114 s

scalarTransport write:
DILUPBiCGStab:  Solving for C, Initial residual = 9.27528e-07, Final residual = 9.27528e-07, No Iterations 0

mixingQuality = 0.662922
Time = 4.2s

ExecutionTime = 111.82 s  ClockTime = 114 s

scalarTransport write:
DILUPBiCGStab:  Solving for C, Initial residual = 9.27528e-07, Final residual = 9.27528e-07, No Iterations 0

mixingQuality = 0.662922
Time = 4.21s

ExecutionTime = 111.86 s  ClockTime = 114 s

scalarTransport write:
DILUPBiCGStab:  Solving for C, Initial residual = 9.27528e-07, Final residual = 9.27528e-07, No Iterations 0

mixingQuality = 0.662922
Time = 4.22s

ExecutionTime = 111.901 s  ClockTime = 114 s

scalarTransport write:
DILUPBiCGStab:  Solving for C, Initial residual = 9.27528e-07, Final residual = 9.27528e-07, No Iterations 0

mixingQuality = 0.662922
Time = 4.23s

ExecutionTime = 111.944 s  ClockTime = 115 s

scalarTransport write:
DILUPBiCGStab:  Solving for C, Initial residual = 9.27528e-07, Final residual = 9.27528e-07, No Iterations 0

mixingQuality = 0.662922
Time = 4.24s

ExecutionTime = 111.985 s  ClockTime = 115 s

scalarTransport write:
DILUPBiCGStab:  Solving for C, Initial residual = 9.27528e-07, Final residual = 9.27528e-07, No Iterations 0

mixingQuality = 0.662922
Time = 4.25s

ExecutionTime = 112.025 s  ClockTime = 115 s

scalarTransport write:
DILUPBiCGStab:  Solving for C, Initial residual = 9.27528e-07, Final residual = 9.27528e-07, No Iterations 0

mixingQuality = 0.662922
Time = 4.26s

ExecutionTime = 112.066 s  ClockTime = 115 s

scalarTransport write:
DILUPBiCGStab:  Solving for C, Initial residual = 9.27528e-07, Final residual = 9.27528e-07, No Iterations 0

mixingQuality = 0.662922
Time = 4.27s

ExecutionTime = 112.106 s  ClockTime = 115 s

scalarTransport write:
DILUPBiCGStab:  Solving for C, Initial residual = 9.27528e-07, Final residual = 9.27528e-07, No Iterations 0

mixingQuality = 0.662922
Time = 4.28s

ExecutionTime = 112.147 s  ClockTime = 115 s

scalarTransport write:
DILUPBiCGStab:  Solving for C, Initial residual = 9.27528e-07, Final residual = 9.27528e-07, No Iterations 0

mixingQuality = 0.662922
Time = 4.29s

ExecutionTime = 112.187 s  ClockTime = 115 s

scalarTransport write:
DILUPBiCGStab:  Solving for C, Initial residual = 9.27528e-07, Final residual = 9.27528e-07, No Iterations 0

mixingQuality = 0.662922
Time = 4.3s

ExecutionTime = 112.228 s  ClockTime = 115 s

scalarTransport write:
DILUPBiCGStab:  Solving for C, Initial residual = 9.27528e-07, Final residual = 9.27528e-07, No Iterations 0

mixingQuality = 0.662922
Time = 4.31s

ExecutionTime = 112.268 s  ClockTime = 115 s

scalarTransport write:
DILUPBiCGStab:  Solving for C, Initial residual = 9.27528e-07, Final residual = 9.27528e-07, No Iterations 0

mixingQuality = 0.662922
Time = 4.32s

ExecutionTime = 112.309 s  ClockTime = 115 s

scalarTransport write:
DILUPBiCGStab:  Solving for C, Initial residual = 9.27528e-07, Final residual = 9.27528e-07, No Iterations 0

mixingQuality = 0.662922
Time = 4.33s

ExecutionTime = 112.349 s  ClockTime = 115 s

scalarTransport write:
DILUPBiCGStab:  Solving for C, Initial residual = 9.27528e-07, Final residual = 9.27528e-07, No Iterations 0

mixingQuality = 0.662922
Time = 4.34s

ExecutionTime = 112.39 s  ClockTime = 115 s

scalarTransport write:
DILUPBiCGStab:  Solving for C, Initial residual = 9.27528e-07, Final residual = 9.27528e-07, No Iterations 0

mixingQuality = 0.662922
Time = 4.35s

ExecutionTime = 112.43 s  ClockTime = 115 s

scalarTransport write:
DILUPBiCGStab:  Solving for C, Initial residual = 9.27528e-07, Final residual = 9.27528e-07, No Iterations 0

mixingQuality = 0.662922
Time = 4.36s

ExecutionTime = 112.471 s  ClockTime = 115 s

scalarTransport write:
DILUPBiCGStab:  Solving for C, Initial residual = 9.27528e-07, Final residual = 9.27528e-07, No Iterations 0

mixingQuality = 0.662922
Time = 4.37s

ExecutionTime = 112.512 s  ClockTime = 115 s

scalarTransport write:
DILUPBiCGStab:  Solving for C, Initial residual = 9.27528e-07, Final residual = 9.27528e-07, No Iterations 0

mixingQuality = 0.662922
Time = 4.38s

ExecutionTime = 112.553 s  ClockTime = 115 s

scalarTransport write:
DILUPBiCGStab:  Solving for C, Initial residual = 9.27528e-07, Final residual = 9.27528e-07, No Iterations 0

mixingQuality = 0.662922
Time = 4.39s

ExecutionTime = 112.593 s  ClockTime = 115 s

scalarTransport write:
DILUPBiCGStab:  Solving for C, Initial residual = 9.27528e-07, Final residual = 9.27528e-07, No Iterations 0

mixingQuality = 0.662922
Time = 4.4s

ExecutionTime = 112.633 s  ClockTime = 115 s

scalarTransport write:
DILUPBiCGStab:  Solving for C, Initial residual = 9.27528e-07, Final residual = 9.27528e-07, No Iterations 0

mixingQuality = 0.662922
Time = 4.41s

ExecutionTime = 112.674 s  ClockTime = 115 s

scalarTransport write:
DILUPBiCGStab:  Solving for C, Initial residual = 9.27528e-07, Final residual = 9.27528e-07, No Iterations 0

mixingQuality = 0.662922
Time = 4.42s

ExecutionTime = 112.714 s  ClockTime = 115 s

scalarTransport write:
DILUPBiCGStab:  Solving for C, Initial residual = 9.27528e-07, Final residual = 9.27528e-07, No Iterations 0

mixingQuality = 0.662922
Time = 4.43s

ExecutionTime = 112.755 s  ClockTime = 115 s

scalarTransport write:
DILUPBiCGStab:  Solving for C, Initial residual = 9.27528e-07, Final residual = 9.27528e-07, No Iterations 0

mixingQuality = 0.662922
Time = 4.44s

ExecutionTime = 112.797 s  ClockTime = 115 s

scalarTransport write:
DILUPBiCGStab:  Solving for C, Initial residual = 9.27528e-07, Final residual = 9.27528e-07, No Iterations 0

mixingQuality = 0.662922
Time = 4.45s

ExecutionTime = 112.838 s  ClockTime = 115 s

scalarTransport write:
DILUPBiCGStab:  Solving for C, Initial residual = 9.27528e-07, Final residual = 9.27528e-07, No Iterations 0

mixingQuality = 0.662922
Time = 4.46s

ExecutionTime = 112.879 s  ClockTime = 115 s

scalarTransport write:
DILUPBiCGStab:  Solving for C, Initial residual = 9.27528e-07, Final residual = 9.27528e-07, No Iterations 0

mixingQuality = 0.662922
Time = 4.47s

ExecutionTime = 112.919 s  ClockTime = 116 s

scalarTransport write:
DILUPBiCGStab:  Solving for C, Initial residual = 9.27528e-07, Final residual = 9.27528e-07, No Iterations 0

mixingQuality = 0.662922
Time = 4.48s

ExecutionTime = 112.96 s  ClockTime = 116 s

scalarTransport write:
DILUPBiCGStab:  Solving for C, Initial residual = 9.27528e-07, Final residual = 9.27528e-07, No Iterations 0

mixingQuality = 0.662922
Time = 4.49s

ExecutionTime = 113.001 s  ClockTime = 116 s

scalarTransport write:
DILUPBiCGStab:  Solving for C, Initial residual = 9.27528e-07, Final residual = 9.27528e-07, No Iterations 0

mixingQuality = 0.662922
Time = 4.5s

ExecutionTime = 113.041 s  ClockTime = 116 s

scalarTransport write:
DILUPBiCGStab:  Solving for C, Initial residual = 9.27528e-07, Final residual = 9.27528e-07, No Iterations 0

mixingQuality = 0.662922
Time = 4.51s

ExecutionTime = 113.082 s  ClockTime = 116 s

scalarTransport write:
DILUPBiCGStab:  Solving for C, Initial residual = 9.27528e-07, Final residual = 9.27528e-07, No Iterations 0

mixingQuality = 0.662922
Time = 4.52s

ExecutionTime = 113.122 s  ClockTime = 116 s

scalarTransport write:
DILUPBiCGStab:  Solving for C, Initial residual = 9.27528e-07, Final residual = 9.27528e-07, No Iterations 0

mixingQuality = 0.662922
Time = 4.53s

ExecutionTime = 113.163 s  ClockTime = 116 s

scalarTransport write:
DILUPBiCGStab:  Solving for C, Initial residual = 9.27528e-07, Final residual = 9.27528e-07, No Iterations 0

mixingQuality = 0.662922
Time = 4.54s

ExecutionTime = 113.203 s  ClockTime = 116 s

scalarTransport write:
DILUPBiCGStab:  Solving for C, Initial residual = 9.27528e-07, Final residual = 9.27528e-07, No Iterations 0

mixingQuality = 0.662922
Time = 4.55s

ExecutionTime = 113.244 s  ClockTime = 116 s

scalarTransport write:
DILUPBiCGStab:  Solving for C, Initial residual = 9.27528e-07, Final residual = 9.27528e-07, No Iterations 0

mixingQuality = 0.662922
Time = 4.56s

ExecutionTime = 113.285 s  ClockTime = 116 s

scalarTransport write:
DILUPBiCGStab:  Solving for C, Initial residual = 9.27528e-07, Final residual = 9.27528e-07, No Iterations 0

mixingQuality = 0.662922
Time = 4.57s

ExecutionTime = 113.325 s  ClockTime = 116 s

scalarTransport write:
DILUPBiCGStab:  Solving for C, Initial residual = 9.27528e-07, Final residual = 9.27528e-07, No Iterations 0

mixingQuality = 0.662922
Time = 4.58s

ExecutionTime = 113.366 s  ClockTime = 116 s

scalarTransport write:
DILUPBiCGStab:  Solving for C, Initial residual = 9.27528e-07, Final residual = 9.27528e-07, No Iterations 0

mixingQuality = 0.662922
Time = 4.59s

ExecutionTime = 113.406 s  ClockTime = 116 s

scalarTransport write:
DILUPBiCGStab:  Solving for C, Initial residual = 9.27528e-07, Final residual = 9.27528e-07, No Iterations 0

mixingQuality = 0.662922
Time = 4.6s

ExecutionTime = 113.447 s  ClockTime = 116 s

scalarTransport write:
DILUPBiCGStab:  Solving for C, Initial residual = 9.27528e-07, Final residual = 9.27528e-07, No Iterations 0

mixingQuality = 0.662922
Time = 4.61s

ExecutionTime = 113.488 s  ClockTime = 116 s

scalarTransport write:
DILUPBiCGStab:  Solving for C, Initial residual = 9.27528e-07, Final residual = 9.27528e-07, No Iterations 0

mixingQuality = 0.662922
Time = 4.62s

ExecutionTime = 113.528 s  ClockTime = 116 s

scalarTransport write:
DILUPBiCGStab:  Solving for C, Initial residual = 9.27528e-07, Final residual = 9.27528e-07, No Iterations 0

mixingQuality = 0.662922
Time = 4.63s

ExecutionTime = 113.569 s  ClockTime = 116 s

scalarTransport write:
DILUPBiCGStab:  Solving for C, Initial residual = 9.27528e-07, Final residual = 9.27528e-07, No Iterations 0

mixingQuality = 0.662922
Time = 4.64s

ExecutionTime = 113.611 s  ClockTime = 116 s

scalarTransport write:
DILUPBiCGStab:  Solving for C, Initial residual = 9.27528e-07, Final residual = 9.27528e-07, No Iterations 0

mixingQuality = 0.662922
Time = 4.65s

ExecutionTime = 113.652 s  ClockTime = 116 s

scalarTransport write:
DILUPBiCGStab:  Solving for C, Initial residual = 9.27528e-07, Final residual = 9.27528e-07, No Iterations 0

mixingQuality = 0.662922
Time = 4.66s

ExecutionTime = 113.693 s  ClockTime = 116 s

scalarTransport write:
DILUPBiCGStab:  Solving for C, Initial residual = 9.27528e-07, Final residual = 9.27528e-07, No Iterations 0

mixingQuality = 0.662922
Time = 4.67s

ExecutionTime = 113.733 s  ClockTime = 116 s

scalarTransport write:
DILUPBiCGStab:  Solving for C, Initial residual = 9.27528e-07, Final residual = 9.27528e-07, No Iterations 0

mixingQuality = 0.662922
Time = 4.68s

ExecutionTime = 113.774 s  ClockTime = 116 s

scalarTransport write:
DILUPBiCGStab:  Solving for C, Initial residual = 9.27528e-07, Final residual = 9.27528e-07, No Iterations 0

mixingQuality = 0.662922
Time = 4.69s

ExecutionTime = 113.815 s  ClockTime = 116 s

scalarTransport write:
DILUPBiCGStab:  Solving for C, Initial residual = 9.27528e-07, Final residual = 9.27528e-07, No Iterations 0

mixingQuality = 0.662922
Time = 4.7s

ExecutionTime = 113.856 s  ClockTime = 116 s

scalarTransport write:
DILUPBiCGStab:  Solving for C, Initial residual = 9.27528e-07, Final residual = 9.27528e-07, No Iterations 0

mixingQuality = 0.662922
Time = 4.71s

ExecutionTime = 113.897 s  ClockTime = 116 s

scalarTransport write:
DILUPBiCGStab:  Solving for C, Initial residual = 9.27528e-07, Final residual = 9.27528e-07, No Iterations 0

mixingQuality = 0.662922
Time = 4.72s

ExecutionTime = 113.938 s  ClockTime = 117 s

scalarTransport write:
DILUPBiCGStab:  Solving for C, Initial residual = 9.27528e-07, Final residual = 9.27528e-07, No Iterations 0

mixingQuality = 0.662922
Time = 4.73s

ExecutionTime = 113.978 s  ClockTime = 117 s

scalarTransport write:
DILUPBiCGStab:  Solving for C, Initial residual = 9.27528e-07, Final residual = 9.27528e-07, No Iterations 0

mixingQuality = 0.662922
Time = 4.74s

ExecutionTime = 114.019 s  ClockTime = 117 s

scalarTransport write:
DILUPBiCGStab:  Solving for C, Initial residual = 9.27528e-07, Final residual = 9.27528e-07, No Iterations 0

mixingQuality = 0.662922
Time = 4.75s

ExecutionTime = 114.059 s  ClockTime = 117 s

scalarTransport write:
DILUPBiCGStab:  Solving for C, Initial residual = 9.27528e-07, Final residual = 9.27528e-07, No Iterations 0

mixingQuality = 0.662922
Time = 4.76s

ExecutionTime = 114.1 s  ClockTime = 117 s

scalarTransport write:
DILUPBiCGStab:  Solving for C, Initial residual = 9.27528e-07, Final residual = 9.27528e-07, No Iterations 0

mixingQuality = 0.662922
Time = 4.77s

ExecutionTime = 114.14 s  ClockTime = 117 s

scalarTransport write:
DILUPBiCGStab:  Solving for C, Initial residual = 9.27528e-07, Final residual = 9.27528e-07, No Iterations 0

mixingQuality = 0.662922
Time = 4.78s

ExecutionTime = 114.181 s  ClockTime = 117 s

scalarTransport write:
DILUPBiCGStab:  Solving for C, Initial residual = 9.27528e-07, Final residual = 9.27528e-07, No Iterations 0

mixingQuality = 0.662922
Time = 4.79s

ExecutionTime = 114.222 s  ClockTime = 117 s

scalarTransport write:
DILUPBiCGStab:  Solving for C, Initial residual = 9.27528e-07, Final residual = 9.27528e-07, No Iterations 0

mixingQuality = 0.662922
Time = 4.8s

ExecutionTime = 114.262 s  ClockTime = 117 s

scalarTransport write:
DILUPBiCGStab:  Solving for C, Initial residual = 9.27528e-07, Final residual = 9.27528e-07, No Iterations 0

mixingQuality = 0.662922
Time = 4.81s

ExecutionTime = 114.303 s  ClockTime = 117 s

scalarTransport write:
DILUPBiCGStab:  Solving for C, Initial residual = 9.27528e-07, Final residual = 9.27528e-07, No Iterations 0

mixingQuality = 0.662922
Time = 4.82s

ExecutionTime = 114.343 s  ClockTime = 117 s

scalarTransport write:
DILUPBiCGStab:  Solving for C, Initial residual = 9.27528e-07, Final residual = 9.27528e-07, No Iterations 0

mixingQuality = 0.662922
Time = 4.83s

ExecutionTime = 114.384 s  ClockTime = 117 s

scalarTransport write:
DILUPBiCGStab:  Solving for C, Initial residual = 9.27528e-07, Final residual = 9.27528e-07, No Iterations 0

mixingQuality = 0.662922
Time = 4.84s

ExecutionTime = 114.426 s  ClockTime = 117 s

scalarTransport write:
DILUPBiCGStab:  Solving for C, Initial residual = 9.27528e-07, Final residual = 9.27528e-07, No Iterations 0

mixingQuality = 0.662922
Time = 4.85s

ExecutionTime = 114.467 s  ClockTime = 117 s

scalarTransport write:
DILUPBiCGStab:  Solving for C, Initial residual = 9.27528e-07, Final residual = 9.27528e-07, No Iterations 0

mixingQuality = 0.662922
Time = 4.86s

ExecutionTime = 114.507 s  ClockTime = 117 s

scalarTransport write:
DILUPBiCGStab:  Solving for C, Initial residual = 9.27528e-07, Final residual = 9.27528e-07, No Iterations 0

mixingQuality = 0.662922
Time = 4.87s

ExecutionTime = 114.548 s  ClockTime = 117 s

scalarTransport write:
DILUPBiCGStab:  Solving for C, Initial residual = 9.27528e-07, Final residual = 9.27528e-07, No Iterations 0

mixingQuality = 0.662922
Time = 4.88s

ExecutionTime = 114.588 s  ClockTime = 117 s

scalarTransport write:
DILUPBiCGStab:  Solving for C, Initial residual = 9.27528e-07, Final residual = 9.27528e-07, No Iterations 0

mixingQuality = 0.662922
Time = 4.89s

ExecutionTime = 114.629 s  ClockTime = 117 s

scalarTransport write:
DILUPBiCGStab:  Solving for C, Initial residual = 9.27528e-07, Final residual = 9.27528e-07, No Iterations 0

mixingQuality = 0.662922
Time = 4.9s

ExecutionTime = 114.67 s  ClockTime = 117 s

scalarTransport write:
DILUPBiCGStab:  Solving for C, Initial residual = 9.27528e-07, Final residual = 9.27528e-07, No Iterations 0

mixingQuality = 0.662922
Time = 4.91s

ExecutionTime = 114.71 s  ClockTime = 117 s

scalarTransport write:
DILUPBiCGStab:  Solving for C, Initial residual = 9.27528e-07, Final residual = 9.27528e-07, No Iterations 0

mixingQuality = 0.662922
Time = 4.92s

ExecutionTime = 114.751 s  ClockTime = 117 s

scalarTransport write:
DILUPBiCGStab:  Solving for C, Initial residual = 9.27528e-07, Final residual = 9.27528e-07, No Iterations 0

mixingQuality = 0.662922
Time = 4.93s

ExecutionTime = 114.791 s  ClockTime = 117 s

scalarTransport write:
DILUPBiCGStab:  Solving for C, Initial residual = 9.27528e-07, Final residual = 9.27528e-07, No Iterations 0

mixingQuality = 0.662922
Time = 4.94s

ExecutionTime = 114.831 s  ClockTime = 117 s

scalarTransport write:
DILUPBiCGStab:  Solving for C, Initial residual = 9.27528e-07, Final residual = 9.27528e-07, No Iterations 0

mixingQuality = 0.662922
Time = 4.95s

ExecutionTime = 114.872 s  ClockTime = 117 s

scalarTransport write:
DILUPBiCGStab:  Solving for C, Initial residual = 9.27528e-07, Final residual = 9.27528e-07, No Iterations 0

mixingQuality = 0.662922
Time = 4.96s

ExecutionTime = 114.912 s  ClockTime = 118 s

scalarTransport write:
DILUPBiCGStab:  Solving for C, Initial residual = 9.27528e-07, Final residual = 9.27528e-07, No Iterations 0

mixingQuality = 0.662922
Time = 4.97s

ExecutionTime = 114.953 s  ClockTime = 118 s

scalarTransport write:
DILUPBiCGStab:  Solving for C, Initial residual = 9.27528e-07, Final residual = 9.27528e-07, No Iterations 0

mixingQuality = 0.662922
Time = 4.98s

ExecutionTime = 114.994 s  ClockTime = 118 s

scalarTransport write:
DILUPBiCGStab:  Solving for C, Initial residual = 9.27528e-07, Final residual = 9.27528e-07, No Iterations 0

mixingQuality = 0.662922
Time = 4.99s

ExecutionTime = 115.035 s  ClockTime = 118 s

scalarTransport write:
DILUPBiCGStab:  Solving for C, Initial residual = 9.27528e-07, Final residual = 9.27528e-07, No Iterations 0

mixingQuality = 0.662922
Time = 5s

ExecutionTime = 115.183 s  ClockTime = 118 s

scalarTransport write:
DILUPBiCGStab:  Solving for C, Initial residual = 9.27528e-07, Final residual = 9.27528e-07, No Iterations 0

mixingQuality = 0.662922
End

